data_Mg(CrS2)2
_symmetry_space_group_name_H-M   'P 1'
_cell_length_a   7.21443541
_cell_length_b   7.21435342
_cell_length_c   7.21453910
_cell_angle_alpha   60.00256087
_cell_angle_beta   59.99991568
_cell_angle_gamma   60.00304608
_symmetry_Int_Tables_number   1
_chemical_formula_structural   Mg(CrS2)2
_chemical_formula_sum   'Mg2 Cr4 S8'
_cell_volume   265.52870772
_cell_formula_units_Z   2
loop_
 _symmetry_equiv_pos_site_id
 _symmetry_equiv_pos_as_xyz
  1  'x, y, z'
loop_
 _atom_site_type_symbol
 _atom_site_label
 _atom_site_symmetry_multiplicity
 _atom_site_fract_x
 _atom_site_fract_y
 _atom_site_fract_z
 _atom_site_occupancy
  Mg  Mg1  1  0.874990  0.875000  0.875018  1
  Mg  Mg2  1  0.125020  0.124990  0.124994  1
  Cr  Cr3  1  0.499999  0.500045  0.499945  1
  Cr  Cr4  1  0.499990  0.499999  -0.000007  1
  Cr  Cr5  1  0.999995  0.499997  0.500012  1
  Cr  Cr6  1  0.499987  0.999996  0.500006  1
  S  S7  1  0.736757  0.736719  0.736689  1
  S  S8  1  0.263259  0.263288  0.710156  1
  S  S9  1  0.263243  0.710169  0.263316  1
  S  S10  1  0.710189  0.263257  0.263299  1
  S  S11  1  0.736747  0.289830  0.736684  1
  S  S12  1  0.289819  0.736729  0.736715  1
  S  S13  1  0.263252  0.263267  0.263324  1
  S  S14  1  0.736757  0.736709  0.289850  1