data_MgCoSb2O7
_symmetry_space_group_name_H-M   'P 1'
_cell_length_a   7.03283221
_cell_length_b   11.47611544
_cell_length_c   15.42105716
_cell_angle_alpha   90.00000000
_cell_angle_beta   90.00000000
_cell_angle_gamma   105.03194535
_symmetry_Int_Tables_number   1
_chemical_formula_structural   MgCoSb2O7
_chemical_formula_sum   'Mg8 Co8 Sb16 O56'
_cell_volume   1202.03782860
_cell_formula_units_Z   8
loop_
 _symmetry_equiv_pos_site_id
 _symmetry_equiv_pos_as_xyz
  1  'x, y, z'
loop_
 _atom_site_type_symbol
 _atom_site_label
 _atom_site_symmetry_multiplicity
 _atom_site_fract_x
 _atom_site_fract_y
 _atom_site_fract_z
 _atom_site_occupancy
  Mg  Mg1  1  0.040947  0.742586  0.522654  1
  Mg  Mg2  1  0.292059  0.905341  0.897782  1
  Mg  Mg3  1  0.707941  0.594659  0.397781  1
  Mg  Mg4  1  0.707941  0.094659  0.102218  1
  Mg  Mg5  1  0.292059  0.405341  0.602218  1
  Mg  Mg6  1  0.040947  0.242586  0.977346  1
  Mg  Mg7  1  0.959053  0.257414  0.477346  1
  Mg  Mg8  1  0.959053  0.757414  0.022654  1
  Co  Co9  1  0.684286  0.098316  0.633249  1
  Co  Co10  1  0.315714  0.401684  0.133249  1
  Co  Co11  1  0.315714  0.901684  0.366751  1
  Co  Co12  1  0.684286  0.598316  0.866751  1
  Co  Co13  1  0.994097  0.237789  0.776368  1
  Co  Co14  1  0.005902  0.262211  0.276368  1
  Co  Co15  1  0.005902  0.762211  0.223632  1
  Co  Co16  1  0.994097  0.737789  0.723632  1
  Sb  Sb17  1  0.809750  0.963951  0.911197  1
  Sb  Sb18  1  0.436669  0.697396  0.048552  1
  Sb  Sb19  1  0.436669  0.197396  0.451448  1
  Sb  Sb20  1  0.563331  0.302604  0.951448  1
  Sb  Sb21  1  0.495987  0.778168  0.749165  1
  Sb  Sb22  1  0.504013  0.721832  0.249165  1
  Sb  Sb23  1  0.504013  0.221832  0.250835  1
  Sb  Sb24  1  0.495987  0.278168  0.750835  1
  Sb  Sb25  1  0.563331  0.802604  0.548552  1
  Sb  Sb26  1  0.843525  0.465915  0.115146  1
  Sb  Sb27  1  0.156475  0.034085  0.615146  1
  Sb  Sb28  1  0.156475  0.534085  0.884854  1
  Sb  Sb29  1  0.190250  0.536049  0.411197  1
  Sb  Sb30  1  0.809750  0.463951  0.588803  1
  Sb  Sb31  1  0.190250  0.036049  0.088803  1
  Sb  Sb32  1  0.843525  0.965915  0.384854  1
  O  O33  1  0.682296  0.959684  0.017363  1
  O  O34  1  0.317704  0.540316  0.517363  1
  O  O35  1  0.317704  0.040316  0.982637  1
  O  O36  1  0.682296  0.459684  0.482637  1
  O  O37  1  0.990462  0.866225  0.914947  1
  O  O38  1  0.009538  0.633775  0.414947  1
  O  O39  1  0.009538  0.133775  0.085053  1
  O  O40  1  0.990462  0.366225  0.585053  1
  O  O41  1  0.961685  0.121020  0.876002  1
  O  O42  1  0.038315  0.378980  0.376002  1
  O  O43  1  0.038315  0.878980  0.123998  1
  O  O44  1  0.961685  0.621020  0.623998  1
  O  O45  1  0.602007  0.887928  0.324778  1
  O  O46  1  0.397993  0.612072  0.824778  1
  O  O47  1  0.397993  0.112072  0.675222  1
  O  O48  1  0.602007  0.387928  0.175222  1
  O  O49  1  0.946440  0.137276  0.377988  1
  O  O50  1  0.053560  0.362724  0.877988  1
  O  O51  1  0.053560  0.862724  0.622012  1
  O  O52  1  0.946440  0.637276  0.122012  1
  O  O53  1  0.035456  0.892910  0.340289  1
  O  O54  1  0.333928  0.805998  0.481552  1
  O  O55  1  0.964544  0.607090  0.840289  1
  O  O56  1  0.035456  0.392910  0.159711  1
  O  O57  1  0.746122  0.732028  0.487604  1
  O  O58  1  0.253878  0.767972  0.987604  1
  O  O59  1  0.253878  0.267972  0.512396  1
  O  O60  1  0.746122  0.232028  0.012396  1
  O  O61  1  0.748644  0.962972  0.503861  1
  O  O62  1  0.251356  0.537028  0.003861  1
  O  O63  1  0.251356  0.037027  0.496139  1
  O  O64  1  0.748644  0.462972  0.996139  1
  O  O65  1  0.447957  0.181876  0.859392  1
  O  O66  1  0.552043  0.318124  0.359392  1
  O  O67  1  0.552043  0.818124  0.140608  1
  O  O68  1  0.447957  0.681876  0.640608  1
  O  O69  1  0.739835  0.235254  0.722394  1
  O  O70  1  0.260165  0.264746  0.222394  1
  O  O71  1  0.260165  0.764746  0.277606  1
  O  O72  1  0.739835  0.735254  0.777606  1
  O  O73  1  0.573527  0.412144  0.658383  1
  O  O74  1  0.426473  0.087856  0.158383  1
  O  O75  1  0.426473  0.587856  0.341617  1
  O  O76  1  0.573527  0.912144  0.841617  1
  O  O77  1  0.248880  0.315879  0.723355  1
  O  O78  1  0.751120  0.184121  0.223355  1
  O  O79  1  0.751120  0.684121  0.276645  1
  O  O80  1  0.248880  0.815879  0.776645  1
  O  O81  1  0.589957  0.409961  0.845873  1
  O  O82  1  0.410043  0.090039  0.345873  1
  O  O83  1  0.410043  0.590039  0.154127  1
  O  O84  1  0.589957  0.909961  0.654127  1
  O  O85  1  0.333928  0.305998  0.018448  1
  O  O86  1  0.666072  0.194002  0.518448  1
  O  O87  1  0.666072  0.694002  0.981552  1
  O  O88  1  0.964544  0.107090  0.659711  1