# generated using pymatgen
data_Fe(GeO3)2
_symmetry_space_group_name_H-M   'P 1'
_cell_length_a   5.42657554
_cell_length_b   8.84647892
_cell_length_c   10.27945445
_cell_angle_alpha   90.00000000
_cell_angle_beta   104.28670711
_cell_angle_gamma   90.00000000
_symmetry_Int_Tables_number   1
_chemical_formula_structural   Fe(GeO3)2
_chemical_formula_sum   'Fe4 Ge8 O24'
_cell_volume   478.21463685
_cell_formula_units_Z   4
loop_
 _symmetry_equiv_pos_site_id
 _symmetry_equiv_pos_as_xyz
  1  'x, y, z'
loop_
 _atom_site_type_symbol
 _atom_site_label
 _atom_site_symmetry_multiplicity
 _atom_site_fract_x
 _atom_site_fract_y
 _atom_site_fract_z
 _atom_site_occupancy
  Fe  Fe0  1  0.971234  0.656876  0.231036  1
  Fe  Fe1  1  0.528766  0.156876  0.768964  1
  Fe  Fe2  1  0.028766  0.343124  0.768964  1
  Fe  Fe3  1  0.471234  0.843124  0.231036  1
  Ge  Ge4  1  0.841682  0.337397  0.055153  1
  Ge  Ge5  1  0.658318  0.837397  0.944847  1
  Ge  Ge6  1  0.158318  0.662603  0.944847  1
  Ge  Ge7  1  0.341682  0.162603  0.055153  1
  Ge  Ge8  1  0.131310  0.347619  0.487125  1
  Ge  Ge9  1  0.368690  0.847619  0.512875  1
  Ge  Ge10  1  0.868690  0.652381  0.512875  1
  Ge  Ge11  1  0.631310  0.152381  0.487125  1
  O  O12  1  0.399219  0.292776  0.423220  1
  O  O13  1  0.100781  0.792776  0.576780  1
  O  O14  1  0.600781  0.707224  0.576780  1
  O  O15  1  0.899219  0.207224  0.423220  1
  O  O16  1  0.163760  0.294461  0.121271  1
  O  O17  1  0.336240  0.794461  0.878729  1
  O  O18  1  0.836240  0.705539  0.878730  1
  O  O19  1  0.663760  0.205539  0.121270  1
  O  O20  1  0.579315  0.966964  0.403079  1
  O  O21  1  0.920685  0.466964  0.596921  1
  O  O22  1  0.420685  0.033036  0.596921  1
  O  O23  1  0.079315  0.533036  0.403079  1
  O  O24  1  0.283753  0.983050  0.112389  1
  O  O25  1  0.216247  0.483050  0.887611  1
  O  O26  1  0.716247  0.016950  0.887611  1
  O  O27  1  0.783753  0.516950  0.112389  1
  O  O28  1  0.769721  0.324748  0.874956  1
  O  O29  1  0.730279  0.824748  0.125044  1
  O  O30  1  0.230279  0.675252  0.125044  1
  O  O31  1  0.269721  0.175252  0.874956  1
  O  O32  1  0.290720  0.309348  0.666973  1
  O  O33  1  0.209280  0.809348  0.333027  1
  O  O34  1  0.709280  0.690652  0.333027  1
  O  O35  1  0.790720  0.190652  0.666973  1
