# generated using pymatgen
data_WO2
_symmetry_space_group_name_H-M   'P 1'
_cell_length_a   6.54221459
_cell_length_b   6.46849422
_cell_length_c   18.85191972
_cell_angle_alpha   58.91246618
_cell_angle_beta   58.04736468
_cell_angle_gamma   59.94067963
_symmetry_Int_Tables_number   1
_chemical_formula_structural   WO2
_chemical_formula_sum   'W12 O24'
_cell_volume   550.50740394
_cell_formula_units_Z   12
loop_
 _symmetry_equiv_pos_site_id
 _symmetry_equiv_pos_as_xyz
  1  'x, y, z'
loop_
 _atom_site_type_symbol
 _atom_site_label
 _atom_site_symmetry_multiplicity
 _atom_site_fract_x
 _atom_site_fract_y
 _atom_site_fract_z
 _atom_site_occupancy
  W  W0  1  0.489599  0.490889  0.169414  1
  W  W1  1  0.489528  0.009735  0.170493  1
  W  W2  1  0.502915  0.501641  0.490729  1
  W  W3  1  0.014594  0.491564  0.167889  1
  W  W4  1  0.495806  0.029782  0.489479  1
  W  W5  1  0.506599  0.506850  0.661850  1
  W  W6  1  0.888478  0.895171  0.274473  1
  W  W7  1  0.498681  0.493793  0.835493  1
  W  W8  1  0.018845  0.505441  0.491422  1
  W  W9  1  0.487301  0.996937  0.843508  1
  W  W10  1  0.005237  0.495325  0.833966  1
  W  W11  1  0.873645  0.875347  0.957793  1
  O  O12  1  0.248223  0.236945  0.106904  1
  O  O13  1  0.252356  0.261444  0.242607  1
  O  O14  1  0.248322  0.694243  0.105739  1
  O  O15  1  0.697164  0.238932  0.107301  1
  O  O16  1  0.248292  0.236144  0.433165  1
  O  O17  1  0.266375  0.755071  0.240992  1
  O  O18  1  0.269802  0.260012  0.563313  1
  O  O19  1  0.752983  0.274112  0.239387  1
  O  O20  1  0.742258  0.736870  0.094426  1
  O  O21  1  0.256942  0.701775  0.429890  1
  O  O22  1  0.713928  0.226348  0.432890  1
  O  O23  1  0.754607  0.755274  0.240033  1
  O  O24  1  0.271068  0.277121  0.756535  1
  O  O25  1  0.332281  0.745401  0.563386  1
  O  O26  1  0.727158  0.330223  0.568039  1
  O  O27  1  0.242097  0.293794  0.905451  1
  O  O28  1  0.752203  0.765322  0.410844  1
  O  O29  1  0.279480  0.692917  0.753662  1
  O  O30  1  0.685233  0.279309  0.758078  1
  O  O31  1  0.726331  0.744321  0.566200  1
  O  O32  1  0.249617  0.748700  0.910539  1
  O  O33  1  0.769517  0.249003  0.904672  1
  O  O34  1  0.725712  0.708732  0.781917  1
  O  O35  1  0.773067  0.751760  0.907943  1
