# generated using pymatgen
data_MgCo(GeO3)2
_symmetry_space_group_name_H-M   'P 1'
_cell_length_a   5.25057538
_cell_length_b   6.63971593
_cell_length_c   6.63971595
_cell_angle_alpha   85.39223843
_cell_angle_beta   82.56386826
_cell_angle_gamma   82.56386482
_symmetry_Int_Tables_number   1
_chemical_formula_structural   MgCo(GeO3)2
_chemical_formula_sum   'Mg2 Co2 Ge4 O12'
_cell_volume   227.12239676
_cell_formula_units_Z   2
loop_
 _symmetry_equiv_pos_site_id
 _symmetry_equiv_pos_as_xyz
  1  'x, y, z'
loop_
 _atom_site_type_symbol
 _atom_site_label
 _atom_site_symmetry_multiplicity
 _atom_site_fract_x
 _atom_site_fract_y
 _atom_site_fract_z
 _atom_site_occupancy
  Mg  Mg0  1  0.750000  0.268546  0.731454  1
  Mg  Mg1  1  0.250000  0.731454  0.268546  1
  Co  Co2  1  0.750000  0.906657  0.093343  1
  Co  Co3  1  0.250000  0.093343  0.906657  1
  Ge  Ge4  1  0.789991  0.394591  0.205122  1
  Ge  Ge5  1  0.710009  0.794878  0.605409  1
  Ge  Ge6  1  0.210009  0.605409  0.794878  1
  Ge  Ge7  1  0.289991  0.205122  0.394591  1
  O  O8  1  0.597771  0.290709  0.430305  1
  O  O9  1  0.902229  0.569695  0.709291  1
  O  O10  1  0.402229  0.709291  0.569695  1
  O  O11  1  0.097771  0.430305  0.290709  1
  O  O12  1  0.118260  0.141677  0.626968  1
  O  O13  1  0.381740  0.373032  0.858323  1
  O  O14  1  0.881740  0.858323  0.373032  1
  O  O15  1  0.618260  0.626968  0.141677  1
  O  O16  1  0.860969  0.208278  0.025964  1
  O  O17  1  0.639031  0.974036  0.791722  1
  O  O18  1  0.139031  0.791722  0.974036  1
  O  O19  1  0.360969  0.025964  0.208278  1
