# generated using pymatgen
data_Mn3(AsO4)4
_symmetry_space_group_name_H-M   'P 1'
_cell_length_a   5.10771082
_cell_length_b   8.50575926
_cell_length_c   14.84874154
_cell_angle_alpha   99.65987474
_cell_angle_beta   90.00000000
_cell_angle_gamma   90.00000000
_symmetry_Int_Tables_number   1
_chemical_formula_structural   Mn3(AsO4)4
_chemical_formula_sum   'Mn6 As8 O32'
_cell_volume   635.95619035
_cell_formula_units_Z   2
loop_
 _symmetry_equiv_pos_site_id
 _symmetry_equiv_pos_as_xyz
  1  'x, y, z'
loop_
 _atom_site_type_symbol
 _atom_site_label
 _atom_site_symmetry_multiplicity
 _atom_site_fract_x
 _atom_site_fract_y
 _atom_site_fract_z
 _atom_site_occupancy
  Mn  Mn0  1  0.052094  0.353198  0.126617  1
  Mn  Mn1  1  0.947906  0.646802  0.873383  1
  Mn  Mn2  1  0.552094  0.146802  0.373383  1
  Mn  Mn3  1  0.447906  0.853198  0.626617  1
  Mn  Mn4  1  0.500000  0.500000  0.000000  1
  Mn  Mn5  1  0.000000  0.000000  0.500000  1
  As  As6  1  0.451533  0.892561  0.850785  1
  As  As7  1  0.042570  0.317015  0.897204  1
  As  As8  1  0.542570  0.182985  0.602796  1
  As  As9  1  0.457430  0.817015  0.397204  1
  As  As10  1  0.548467  0.107439  0.149215  1
  As  As11  1  0.957430  0.682985  0.102796  1
  As  As12  1  0.048467  0.392561  0.350785  1
  As  As13  1  0.951533  0.607439  0.649215  1
  O  O14  1  0.011145  0.543344  0.751809  1
  O  O15  1  0.644540  0.227904  0.499149  1
  O  O16  1  0.079281  0.174891  0.809175  1
  O  O17  1  0.114818  0.788160  0.656001  1
  O  O18  1  0.920719  0.825109  0.190825  1
  O  O19  1  0.488855  0.043344  0.251809  1
  O  O20  1  0.579281  0.325109  0.690825  1
  O  O21  1  0.750415  0.933301  0.400583  1
  O  O22  1  0.944563  0.544412  0.434179  1
  O  O23  1  0.988855  0.456656  0.248191  1
  O  O24  1  0.385182  0.288160  0.156001  1
  O  O25  1  0.249585  0.066699  0.599417  1
  O  O26  1  0.234309  0.502206  0.904357  1
  O  O27  1  0.055437  0.455588  0.565821  1
  O  O28  1  0.871414  0.161298  0.132233  1
  O  O29  1  0.371414  0.338702  0.367767  1
  O  O30  1  0.734309  0.997794  0.595643  1
  O  O31  1  0.420719  0.674891  0.309175  1
  O  O32  1  0.444563  0.955588  0.065821  1
  O  O33  1  0.250415  0.566699  0.099417  1
  O  O34  1  0.628586  0.661298  0.632233  1
  O  O35  1  0.128586  0.838702  0.867767  1
  O  O36  1  0.355460  0.772096  0.500851  1
  O  O37  1  0.144540  0.272096  0.000851  1
  O  O38  1  0.765691  0.497794  0.095643  1
  O  O39  1  0.511145  0.956656  0.748191  1
  O  O40  1  0.885182  0.211840  0.343999  1
  O  O41  1  0.555437  0.044412  0.934179  1
  O  O42  1  0.855460  0.727904  0.999149  1
  O  O43  1  0.749585  0.433301  0.900583  1
  O  O44  1  0.265691  0.002206  0.404357  1
  O  O45  1  0.614818  0.711840  0.843999  1
