# generated using pymatgen
data_MgCr(SiO3)2
_symmetry_space_group_name_H-M   'P 1'
_cell_length_a   5.31841646
_cell_length_b   9.09821407
_cell_length_c   18.60551705
_cell_angle_alpha   90.00000000
_cell_angle_beta   90.00000000
_cell_angle_gamma   90.00000000
_symmetry_Int_Tables_number   1
_chemical_formula_structural   MgCr(SiO3)2
_chemical_formula_sum   'Mg8 Cr8 Si16 O48'
_cell_volume   900.28546080
_cell_formula_units_Z   8
loop_
 _symmetry_equiv_pos_site_id
 _symmetry_equiv_pos_as_xyz
  1  'x, y, z'
loop_
 _atom_site_type_symbol
 _atom_site_label
 _atom_site_symmetry_multiplicity
 _atom_site_fract_x
 _atom_site_fract_y
 _atom_site_fract_z
 _atom_site_occupancy
  Mg  Mg0  1  0.617294  0.152235  0.624633  1
  Mg  Mg1  1  0.382706  0.847765  0.375367  1
  Mg  Mg2  1  0.617294  0.652235  0.875367  1
  Mg  Mg3  1  0.117294  0.847765  0.875367  1
  Mg  Mg4  1  0.882706  0.152235  0.124633  1
  Mg  Mg5  1  0.382706  0.347765  0.124633  1
  Mg  Mg6  1  0.117294  0.347765  0.624633  1
  Mg  Mg7  1  0.882706  0.652235  0.375367  1
  Cr  Cr8  1  0.375998  0.981155  0.123681  1
  Cr  Cr9  1  0.624002  0.018845  0.876319  1
  Cr  Cr10  1  0.875998  0.018845  0.376319  1
  Cr  Cr11  1  0.124002  0.981155  0.623681  1
  Cr  Cr12  1  0.375998  0.481155  0.376319  1
  Cr  Cr13  1  0.624002  0.518845  0.623681  1
  Cr  Cr14  1  0.875998  0.518845  0.123681  1
  Cr  Cr15  1  0.124002  0.481155  0.876319  1
  Si  Si16  1  0.563586  0.661760  0.228266  1
  Si  Si17  1  0.713827  0.836766  0.524264  1
  Si  Si18  1  0.786173  0.836766  0.024264  1
  Si  Si19  1  0.936414  0.161760  0.771734  1
  Si  Si20  1  0.063586  0.338240  0.271734  1
  Si  Si21  1  0.436414  0.838240  0.728266  1
  Si  Si22  1  0.213827  0.663234  0.524264  1
  Si  Si23  1  0.713827  0.336766  0.975736  1
  Si  Si24  1  0.786173  0.336766  0.475736  1
  Si  Si25  1  0.936414  0.661760  0.728266  1
  Si  Si26  1  0.436414  0.338240  0.771734  1
  Si  Si27  1  0.563586  0.161760  0.271734  1
  Si  Si28  1  0.286173  0.163234  0.475736  1
  Si  Si29  1  0.063586  0.838240  0.228266  1
  Si  Si30  1  0.286173  0.663234  0.024264  1
  Si  Si31  1  0.213827  0.163234  0.975736  1
  O  O32  1  0.937032  0.503209  0.688307  1
  O  O33  1  0.293831  0.014059  0.933990  1
  O  O34  1  0.062968  0.496791  0.311693  1
  O  O35  1  0.711103  0.337678  0.063869  1
  O  O36  1  0.211103  0.162322  0.063869  1
  O  O37  1  0.924320  0.210470  0.949051  1
  O  O38  1  0.940832  0.667074  0.815457  1
  O  O39  1  0.059168  0.832926  0.315457  1
  O  O40  1  0.711103  0.837678  0.436131  1
  O  O41  1  0.940832  0.167074  0.684543  1
  O  O42  1  0.437032  0.496791  0.811693  1
  O  O43  1  0.788897  0.337678  0.563869  1
  O  O44  1  0.706169  0.985941  0.066010  1
  O  O45  1  0.440832  0.832926  0.815457  1
  O  O46  1  0.562968  0.003209  0.311693  1
  O  O47  1  0.293831  0.514059  0.566010  1
  O  O48  1  0.437032  0.996791  0.688307  1
  O  O49  1  0.164834  0.768961  0.696630  1
  O  O50  1  0.335166  0.768961  0.196630  1
  O  O51  1  0.575680  0.710470  0.050949  1
  O  O52  1  0.788897  0.837678  0.936131  1
  O  O53  1  0.559168  0.667074  0.315457  1
  O  O54  1  0.793831  0.485941  0.933990  1
  O  O55  1  0.164834  0.268961  0.803370  1
  O  O56  1  0.288897  0.162322  0.563869  1
  O  O57  1  0.559168  0.167074  0.184543  1
  O  O58  1  0.706169  0.485941  0.433990  1
  O  O59  1  0.211103  0.662322  0.436131  1
  O  O60  1  0.206169  0.514059  0.066010  1
  O  O61  1  0.664834  0.731039  0.696630  1
  O  O62  1  0.062968  0.996791  0.188307  1
  O  O63  1  0.835166  0.731039  0.196630  1
  O  O64  1  0.835166  0.231039  0.303370  1
  O  O65  1  0.793831  0.985941  0.566010  1
  O  O66  1  0.288897  0.662322  0.936131  1
  O  O67  1  0.206169  0.014059  0.433990  1
  O  O68  1  0.335166  0.268961  0.303370  1
  O  O69  1  0.075680  0.789530  0.050949  1
  O  O70  1  0.424320  0.789530  0.550949  1
  O  O71  1  0.664834  0.231039  0.803370  1
  O  O72  1  0.424320  0.289530  0.949051  1
  O  O73  1  0.575680  0.210470  0.449051  1
  O  O74  1  0.075680  0.289530  0.449051  1
  O  O75  1  0.440832  0.332926  0.684543  1
  O  O76  1  0.562968  0.503209  0.188307  1
  O  O77  1  0.924320  0.710470  0.550949  1
  O  O78  1  0.059168  0.332926  0.184543  1
  O  O79  1  0.937032  0.003209  0.811693  1
