# generated using pymatgen
data_Mg(NiO2)2
_symmetry_space_group_name_H-M   'P 1'
_cell_length_a   2.93979469
_cell_length_b   7.31995441
_cell_length_c   7.29760069
_cell_angle_alpha   77.80577942
_cell_angle_beta   77.65232621
_cell_angle_gamma   76.84851833
_symmetry_Int_Tables_number   1
_chemical_formula_structural   Mg(NiO2)2
_chemical_formula_sum   'Mg2 Ni4 O8'
_cell_volume   147.18437305
_cell_formula_units_Z   2
loop_
 _symmetry_equiv_pos_site_id
 _symmetry_equiv_pos_as_xyz
  1  'x, y, z'
loop_
 _atom_site_type_symbol
 _atom_site_label
 _atom_site_symmetry_multiplicity
 _atom_site_fract_x
 _atom_site_fract_y
 _atom_site_fract_z
 _atom_site_occupancy
  Mg  Mg0  1  0.317049  0.148123  0.204970  1
  Mg  Mg1  1  0.670035  0.828303  0.824280  1
  Ni  Ni2  1  0.622136  0.173778  0.559161  1
  Ni  Ni3  1  0.152699  0.512941  0.196939  1
  Ni  Ni4  1  0.831987  0.463042  0.833527  1
  Ni  Ni5  1  0.363806  0.802861  0.470530  1
  O  O6  1  0.862963  0.663271  0.611462  1
  O  O7  1  0.436406  0.309306  0.773389  1
  O  O8  1  0.546842  0.665320  0.259170  1
  O  O9  1  0.123129  0.312850  0.418200  1
  O  O10  1  0.153712  0.988729  0.681023  1
  O  O11  1  0.767580  0.336073  0.094835  1
  O  O12  1  0.834305  0.986449  0.346263  1
  O  O13  1  0.218668  0.641901  0.936140  1
