# generated using pymatgen
data_CrO2
_symmetry_space_group_name_H-M   'P 1'
_cell_length_a   2.92171427
_cell_length_b   4.97402057
_cell_length_c   9.76704680
_cell_angle_alpha   90.00000000
_cell_angle_beta   90.00000000
_cell_angle_gamma   107.07945098
_symmetry_Int_Tables_number   1
_chemical_formula_structural   CrO2
_chemical_formula_sum   'Cr4 O8'
_cell_volume   135.68140329
_cell_formula_units_Z   4
loop_
 _symmetry_equiv_pos_site_id
 _symmetry_equiv_pos_as_xyz
  1  'x, y, z'
loop_
 _atom_site_type_symbol
 _atom_site_label
 _atom_site_symmetry_multiplicity
 _atom_site_fract_x
 _atom_site_fract_y
 _atom_site_fract_z
 _atom_site_occupancy
  Cr  Cr0  1  0.866370  0.732740  0.073274  1
  Cr  Cr1  1  0.133630  0.267260  0.926726  1
  Cr  Cr2  1  0.866370  0.732740  0.426726  1
  Cr  Cr3  1  0.133630  0.267260  0.573274  1
  O  O4  1  0.238610  0.477218  0.398546  1
  O  O5  1  0.761390  0.522782  0.601454  1
  O  O6  1  0.761390  0.522782  0.898546  1
  O  O7  1  0.238610  0.477218  0.101454  1
  O  O8  1  0.924603  0.849206  0.250000  1
  O  O9  1  0.075397  0.150794  0.750000  1
  O  O10  1  0.500000  -0.000000  0.000000  1
  O  O11  1  0.500000  -0.000000  0.500000  1
