# generated using pymatgen
data_Ba(SbO2)4
_symmetry_space_group_name_H-M   'P 1'
_cell_length_a   6.28186763
_cell_length_b   6.28186793
_cell_length_c   7.12358759
_cell_angle_alpha   90.00000000
_cell_angle_beta   90.00000000
_cell_angle_gamma   119.99999373
_symmetry_Int_Tables_number   1
_chemical_formula_structural   Ba(SbO2)4
_chemical_formula_sum   'Ba1 Sb4 O8'
_cell_volume   243.44844776
_cell_formula_units_Z   1
loop_
 _symmetry_equiv_pos_site_id
 _symmetry_equiv_pos_as_xyz
  1  'x, y, z'
loop_
 _atom_site_type_symbol
 _atom_site_label
 _atom_site_symmetry_multiplicity
 _atom_site_fract_x
 _atom_site_fract_y
 _atom_site_fract_z
 _atom_site_occupancy
  Ba  Ba0  1  -0.000000  0.000000  -0.000000  1
  Sb  Sb1  1  0.333333  0.666667  0.722810  1
  Sb  Sb2  1  0.666667  0.333333  0.722810  1
  Sb  Sb3  1  0.333333  0.666667  0.277190  1
  Sb  Sb4  1  0.666667  0.333333  0.277190  1
  O  O5  1  0.344335  0.344335  0.733158  1
  O  O6  1  0.655665  0.000000  0.733158  1
  O  O7  1  0.000000  0.655665  0.733158  1
  O  O8  1  0.655665  0.655665  0.266842  1
  O  O9  1  1.000000  0.344335  0.266842  1
  O  O10  1  0.344335  1.000000  0.266842  1
  O  O11  1  0.333333  0.666667  -0.000000  1
  O  O12  1  0.666667  0.333333  -0.000000  1
