# generated using pymatgen
data_V9O13
_symmetry_space_group_name_H-M   'P 1'
_cell_length_a   2.94120857
_cell_length_b   5.36392869
_cell_length_c   17.71924138
_cell_angle_alpha   97.95830373
_cell_angle_beta   89.99224474
_cell_angle_gamma   105.90487345
_symmetry_Int_Tables_number   1
_chemical_formula_structural   V9O13
_chemical_formula_sum   'V9 O13'
_cell_volume   266.04577384
_cell_formula_units_Z   1
loop_
 _symmetry_equiv_pos_site_id
 _symmetry_equiv_pos_as_xyz
  1  'x, y, z'
loop_
 _atom_site_type_symbol
 _atom_site_label
 _atom_site_symmetry_multiplicity
 _atom_site_fract_x
 _atom_site_fract_y
 _atom_site_fract_z
 _atom_site_occupancy
  V  V0  1  0.500000  0.000000  0.500000  1
  V  V1  1  0.642647  0.285778  0.042390  1
  V  V2  1  0.357353  0.714222  0.957610  1
  V  V3  1  0.741699  0.483189  0.418054  1
  V  V4  1  0.258301  0.516811  0.581946  1
  V  V5  1  0.929826  0.860047  0.124681  1
  V  V6  1  0.070174  0.139953  0.875319  1
  V  V7  1  0.971418  0.943037  0.322977  1
  V  V8  1  0.028582  0.056963  0.677023  1
  O  O9  1  0.000000  0.000000  0.000000  1
  O  O10  1  0.895185  0.790360  0.232040  1
  O  O11  1  0.104815  0.209640  0.767960  1
  O  O12  1  0.290051  0.580813  0.070040  1
  O  O13  1  0.709949  0.419187  0.929960  1
  O  O14  1  0.549386  0.099318  0.135192  1
  O  O15  1  0.450614  0.900682  0.864808  1
  O  O16  1  0.593491  0.187232  0.328333  1
  O  O17  1  0.406509  0.812768  0.671667  1
  O  O18  1  0.379880  0.759581  0.386949  1
  O  O19  1  0.620120  0.240419  0.613051  1
  O  O20  1  0.131639  0.263472  0.472286  1
  O  O21  1  0.868361  0.736528  0.527714  1
