# generated using pymatgen
data_MgV4O10
_symmetry_space_group_name_H-M   'P 1'
_cell_length_a   3.53866247
_cell_length_b   4.95915013
_cell_length_c   11.57591000
_cell_angle_alpha   90.01546417
_cell_angle_beta   89.99983792
_cell_angle_gamma   89.99693841
_symmetry_Int_Tables_number   1
_chemical_formula_structural   MgV4O10
_chemical_formula_sum   'Mg1 V4 O10'
_cell_volume   203.14284096
_cell_formula_units_Z   1
loop_
 _symmetry_equiv_pos_site_id
 _symmetry_equiv_pos_as_xyz
  1  'x, y, z'
loop_
 _atom_site_type_symbol
 _atom_site_label
 _atom_site_symmetry_multiplicity
 _atom_site_fract_x
 _atom_site_fract_y
 _atom_site_fract_z
 _atom_site_occupancy
  Mg  Mg0  1  0.250046  0.189478  0.749856  1
  V  V1  1  0.250001  0.411003  0.101475  1
  V  V2  1  0.749995  0.605357  0.899248  1
  V  V3  1  0.749991  0.605459  0.600810  1
  V  V4  1  0.250001  0.411188  0.398477  1
  O  O5  1  0.750019  0.417971  0.749983  1
  O  O6  1  0.250000  0.526117  0.249998  1
  O  O7  1  0.749996  0.530592  0.069999  1
  O  O8  1  0.250007  0.451517  0.922979  1
  O  O9  1  0.749997  0.530777  0.430051  1
  O  O10  1  0.250005  0.451652  0.577050  1
  O  O11  1  0.250013  0.087682  0.388553  1
  O  O12  1  0.749954  0.934929  0.634528  1
  O  O13  1  0.749969  0.934781  0.865628  1
  O  O14  1  0.250010  0.087508  0.111386  1
