# generated using pymatgen
data_MoO2
_symmetry_space_group_name_H-M   'P 1'
_cell_length_a   3.18984546
_cell_length_b   5.27385425
_cell_length_c   10.50391877
_cell_angle_alpha   90.00000000
_cell_angle_beta   90.00000000
_cell_angle_gamma   107.60306476
_symmetry_Int_Tables_number   1
_chemical_formula_structural   MoO2
_chemical_formula_sum   'Mo4 O8'
_cell_volume   168.43080819
_cell_formula_units_Z   4
loop_
 _symmetry_equiv_pos_site_id
 _symmetry_equiv_pos_as_xyz
  1  'x, y, z'
loop_
 _atom_site_type_symbol
 _atom_site_label
 _atom_site_symmetry_multiplicity
 _atom_site_fract_x
 _atom_site_fract_y
 _atom_site_fract_z
 _atom_site_occupancy
  Mo  Mo0  1  0.866907  0.733815  0.075107  1
  Mo  Mo1  1  0.133093  0.266185  0.924893  1
  Mo  Mo2  1  0.866907  0.733815  0.424893  1
  Mo  Mo3  1  0.133093  0.266185  0.575107  1
  O  O4  1  0.239608  0.479216  0.402477  1
  O  O5  1  0.760392  0.520784  0.597523  1
  O  O6  1  0.760392  0.520784  0.902477  1
  O  O7  1  0.239608  0.479216  0.097523  1
  O  O8  1  0.919996  0.839993  0.250000  1
  O  O9  1  0.080004  0.160007  0.750000  1
  O  O10  1  0.500000  -0.000000  0.000000  1
  O  O11  1  0.500000  -0.000000  0.500000  1
