# generated using pymatgen
data_W3O8
_symmetry_space_group_name_H-M   'P 1'
_cell_length_a   6.22545541
_cell_length_b   6.22545541
_cell_length_c   10.00359874
_cell_angle_alpha   90.00000000
_cell_angle_beta   90.00000000
_cell_angle_gamma   120.00000006
_symmetry_Int_Tables_number   1
_chemical_formula_structural   W3O8
_chemical_formula_sum   'W6 O16'
_cell_volume   335.76014836
_cell_formula_units_Z   2
loop_
 _symmetry_equiv_pos_site_id
 _symmetry_equiv_pos_as_xyz
  1  'x, y, z'
loop_
 _atom_site_type_symbol
 _atom_site_label
 _atom_site_symmetry_multiplicity
 _atom_site_fract_x
 _atom_site_fract_y
 _atom_site_fract_z
 _atom_site_occupancy
  W  W0  1  0.663992  0.831996  0.249047  1
  W  W1  1  0.831997  0.168005  0.749047  1
  W  W2  1  0.168005  0.336009  0.249047  1
  W  W3  1  0.831995  0.663992  0.749047  1
  W  W4  1  0.336009  0.168005  0.749047  1
  W  W5  1  0.168005  0.831996  0.249047  1
  O  O6  1  0.853362  0.146639  0.153080  1
  O  O7  1  0.706724  0.853362  0.653079  1
  O  O8  1  0.146639  0.293277  0.653079  1
  O  O9  1  0.853361  0.706724  0.153080  1
  O  O10  1  0.293276  0.146639  0.153080  1
  O  O11  1  0.146639  0.853362  0.653079  1
  O  O12  1  0.520109  0.479890  0.850429  1
  O  O13  1  0.040218  0.520109  0.350428  1
  O  O14  1  0.479891  0.959783  0.350428  1
  O  O15  1  0.520109  0.040218  0.850429  1
  O  O16  1  0.000000  -0.000000  0.358281  1
  O  O17  1  -0.000000  0.000000  0.858281  1
  O  O18  1  0.333333  0.666666  0.139198  1
  O  O19  1  0.959781  0.479890  0.850429  1
  O  O20  1  0.479890  0.520109  0.350428  1
  O  O21  1  0.666667  0.333334  0.639198  1
