# generated using pymatgen
data_Fe2(MoO4)3
_symmetry_space_group_name_H-M   'P 1'
_cell_length_a   6.93380689
_cell_length_b   8.66317726
_cell_length_c   10.37720707
_cell_angle_alpha   108.49529134
_cell_angle_beta   103.48001795
_cell_angle_gamma   103.76135924
_symmetry_Int_Tables_number   1
_chemical_formula_structural   Fe2(MoO4)3
_chemical_formula_sum   'Fe4 Mo6 O24'
_cell_volume   541.00627949
_cell_formula_units_Z   2
loop_
 _symmetry_equiv_pos_site_id
 _symmetry_equiv_pos_as_xyz
  1  'x, y, z'
loop_
 _atom_site_type_symbol
 _atom_site_label
 _atom_site_symmetry_multiplicity
 _atom_site_fract_x
 _atom_site_fract_y
 _atom_site_fract_z
 _atom_site_occupancy
  Fe  Fe0  1  0.375974  0.957691  0.609004  1
  Fe  Fe1  1  0.624026  0.042309  0.390996  1
  Fe  Fe2  1  0.045680  0.202769  0.012916  1
  Fe  Fe3  1  0.954320  0.797231  0.987084  1
  Mo  Mo4  1  0.879411  0.897009  0.662547  1
  Mo  Mo5  1  0.120589  0.102991  0.337453  1
  Mo  Mo6  1  0.211822  0.666997  0.259625  1
  Mo  Mo7  1  0.788178  0.333003  0.740374  1
  Mo  Mo8  1  0.595141  0.256445  0.132213  1
  Mo  Mo9  1  0.404859  0.743555  0.867787  1
  O  O10  1  0.071871  0.058496  0.142916  1
  O  O11  1  0.928129  0.941504  0.857084  1
  O  O12  1  0.569321  0.134905  0.246945  1
  O  O13  1  0.430679  0.865095  0.753055  1
  O  O14  1  0.160942  0.439903  0.168885  1
  O  O15  1  0.839058  0.560097  0.831115  1
  O  O16  1  0.976476  0.262856  0.840313  1
  O  O17  1  0.023524  0.737144  0.159687  1
  O  O18  1  0.238285  0.808893  0.970917  1
  O  O19  1  0.761715  0.191107  0.029083  1
  O  O20  1  0.882353  0.003729  0.363480  1
  O  O21  1  0.117647  0.996271  0.636520  1
  O  O22  1  0.534343  0.214429  0.734170  1
  O  O23  1  0.465657  0.785571  0.265830  1
  O  O24  1  0.334146  0.218302  0.014285  1
  O  O25  1  0.665854  0.781698  0.985715  1
  O  O26  1  0.341953  0.043025  0.429040  1
  O  O27  1  0.658047  0.956975  0.570960  1
  O  O28  1  0.221311  0.724966  0.444123  1
  O  O29  1  0.778689  0.275034  0.555877  1
  O  O30  1  0.714325  0.473855  0.240721  1
  O  O31  1  0.285675  0.526145  0.759279  1
  O  O32  1  0.179259  0.321122  0.418965  1
  O  O33  1  0.820741  0.678878  0.581035  1
