# generated using pymatgen
data_MgCuO2
_symmetry_space_group_name_H-M   'P 1'
_cell_length_a   3.19000185
_cell_length_b   8.19203343
_cell_length_c   7.90183907
_cell_angle_alpha   73.04918886
_cell_angle_beta   81.44009085
_cell_angle_gamma   99.67877508
_symmetry_Int_Tables_number   1
_chemical_formula_structural   MgCuO2
_chemical_formula_sum   'Mg4 Cu4 O8'
_cell_volume   190.37803573
_cell_formula_units_Z   4
loop_
 _symmetry_equiv_pos_site_id
 _symmetry_equiv_pos_as_xyz
  1  'x, y, z'
loop_
 _atom_site_type_symbol
 _atom_site_label
 _atom_site_symmetry_multiplicity
 _atom_site_fract_x
 _atom_site_fract_y
 _atom_site_fract_z
 _atom_site_occupancy
  Mg  Mg0  1  0.437146  0.134370  0.242805  1
  Mg  Mg1  1  0.613419  0.862467  0.772140  1
  Mg  Mg2  1  0.947820  0.786536  0.157896  1
  Mg  Mg3  1  0.058273  0.186909  0.901432  1
  Cu  Cu4  1  0.525565  0.240764  0.564296  1
  Cu  Cu5  1  0.147020  0.475665  0.183605  1
  Cu  Cu6  1  0.835183  0.515171  0.851303  1
  Cu  Cu7  1  0.355732  0.661897  0.515062  1
  O  O8  1  0.809528  0.700621  0.640732  1
  O  O9  1  0.662960  0.321938  0.765973  1
  O  O10  1  0.350938  0.654088  0.278520  1
  O  O11  1  0.129835  0.267169  0.389028  1
  O  O12  1  0.178824  0.015173  0.767954  1
  O  O13  1  0.877621  0.340708  0.058468  1
  O  O14  1  0.926642  0.018328  0.166224  1
  O  O15  1  0.114910  0.676041  0.967109  1
