# generated using pymatgen
data_MgMn4O6
_symmetry_space_group_name_H-M   'P 1'
_cell_length_a   3.04308263
_cell_length_b   5.34877736
_cell_length_c   15.41528395
_cell_angle_alpha   90.00000000
_cell_angle_beta   90.00000000
_cell_angle_gamma   106.52688173
_symmetry_Int_Tables_number   1
_chemical_formula_structural   MgMn4O6
_chemical_formula_sum   'Mg2 Mn8 O12'
_cell_volume   240.54500923
_cell_formula_units_Z   2
loop_
 _symmetry_equiv_pos_site_id
 _symmetry_equiv_pos_as_xyz
  1  'x, y, z'
loop_
 _atom_site_type_symbol
 _atom_site_label
 _atom_site_symmetry_multiplicity
 _atom_site_fract_x
 _atom_site_fract_y
 _atom_site_fract_z
 _atom_site_occupancy
  Mg  Mg0  1  0.659323  0.318647  0.750000  1
  Mg  Mg1  1  0.340677  0.681353  0.250000  1
  Mn  Mn2  1  0.863956  0.727915  0.045679  1
  Mn  Mn3  1  0.403898  0.807795  0.640600  1
  Mn  Mn4  1  0.136042  0.272084  0.954321  1
  Mn  Mn5  1  0.596102  0.192205  0.359401  1
  Mn  Mn6  1  0.863956  0.727915  0.454321  1
  Mn  Mn7  1  0.136042  0.272084  0.545679  1
  Mn  Mn8  1  0.596102  0.192205  0.140599  1
  Mn  Mn9  1  0.403898  0.807795  0.859400  1
  O  O10  1  0.499999  0.000000  0.500000  1
  O  O11  1  0.499999  0.000000  -0.000000  1
  O  O12  1  0.053359  0.106717  0.840280  1
  O  O13  1  0.946641  0.893283  0.159721  1
  O  O14  1  0.946641  0.893283  0.340279  1
  O  O15  1  0.053359  0.106717  0.659721  1
  O  O16  1  0.780100  0.560202  0.927046  1
  O  O17  1  0.219899  0.439799  0.072954  1
  O  O18  1  0.219899  0.439799  0.427046  1
  O  O19  1  0.780100  0.560202  0.572954  1
  O  O20  1  0.294544  0.589090  0.750000  1
  O  O21  1  0.705454  0.410909  0.250000  1
