# generated using pymatgen
data_MgCrF4
_symmetry_space_group_name_H-M   'P 1'
_cell_length_a   5.05397142
_cell_length_b   5.66265619
_cell_length_c   6.25014088
_cell_angle_alpha   116.93763529
_cell_angle_beta   109.57649114
_cell_angle_gamma   89.99741382
_symmetry_Int_Tables_number   1
_chemical_formula_structural   MgCrF4
_chemical_formula_sum   'Mg2 Cr2 F8'
_cell_volume   147.77457838
_cell_formula_units_Z   2
loop_
 _symmetry_equiv_pos_site_id
 _symmetry_equiv_pos_as_xyz
  1  'x, y, z'
loop_
 _atom_site_type_symbol
 _atom_site_label
 _atom_site_symmetry_multiplicity
 _atom_site_fract_x
 _atom_site_fract_y
 _atom_site_fract_z
 _atom_site_occupancy
  Mg  Mg0  1  0.248010  0.185587  0.498901  1
  Mg  Mg1  1  0.747998  0.816139  0.498881  1
  Cr  Cr2  1  0.998096  0.500735  0.999258  1
  Cr  Cr3  1  0.498015  0.000829  0.998914  1
  F  F4  1  0.818595  0.489844  0.240257  1
  F  F5  1  0.660617  0.203629  0.710360  1
  F  F6  1  0.177713  0.511723  0.758200  1
  F  F7  1  0.160545  0.009053  0.709998  1
  F  F8  1  0.335431  0.797934  0.287975  1
  F  F9  1  0.318668  0.252538  0.239859  1
  F  F10  1  0.835390  0.992386  0.287624  1
  F  F11  1  0.677784  0.748565  0.757772  1
