# generated using pymatgen
data_Cu3(WO3)4
_symmetry_space_group_name_H-M   'P 1'
_cell_length_a   6.59322617
_cell_length_b   6.59322627
_cell_length_c   6.59322626
_cell_angle_alpha   109.47122380
_cell_angle_beta   109.47122417
_cell_angle_gamma   109.47121232
_symmetry_Int_Tables_number   1
_chemical_formula_structural   Cu3(WO3)4
_chemical_formula_sum   'Cu3 W4 O12'
_cell_volume   220.63380324
_cell_formula_units_Z   1
loop_
 _symmetry_equiv_pos_site_id
 _symmetry_equiv_pos_as_xyz
  1  'x, y, z'
loop_
 _atom_site_type_symbol
 _atom_site_label
 _atom_site_symmetry_multiplicity
 _atom_site_fract_x
 _atom_site_fract_y
 _atom_site_fract_z
 _atom_site_occupancy
  Cu  Cu0  1  0.500000  0.500000  -0.000000  1
  Cu  Cu1  1  0.000000  0.500000  0.500000  1
  Cu  Cu2  1  0.500000  0.000000  0.500000  1
  W  W3  1  0.000000  0.000000  0.500000  1
  W  W4  1  0.000000  0.500000  -0.000000  1
  W  W5  1  0.500000  0.500000  0.500000  1
  W  W6  1  0.500000  0.000000  -0.000000  1
  O  O7  1  0.817891  0.308647  0.126539  1
  O  O8  1  0.182109  0.691353  0.873461  1
  O  O9  1  0.817891  0.691353  0.509244  1
  O  O10  1  0.308647  0.490756  0.182109  1
  O  O11  1  0.490756  0.182109  0.308647  1
  O  O12  1  0.126539  0.817891  0.308647  1
  O  O13  1  0.691353  0.873461  0.182109  1
  O  O14  1  0.509244  0.817891  0.691353  1
  O  O15  1  0.182109  0.308647  0.490756  1
  O  O16  1  0.691353  0.509244  0.817891  1
  O  O17  1  0.873461  0.182109  0.691353  1
  O  O18  1  0.308647  0.126539  0.817891  1
