# generated using pymatgen
data_MgSi2WO6
_symmetry_space_group_name_H-M   'P 1'
_cell_length_a   5.40233075
_cell_length_b   9.39960336
_cell_length_c   18.97337066
_cell_angle_alpha   90.00000000
_cell_angle_beta   90.00000000
_cell_angle_gamma   90.00000000
_symmetry_Int_Tables_number   1
_chemical_formula_structural   MgSi2WO6
_chemical_formula_sum   'Mg8 Si16 W8 O48'
_cell_volume   963.46332746
_cell_formula_units_Z   8
loop_
 _symmetry_equiv_pos_site_id
 _symmetry_equiv_pos_as_xyz
  1  'x, y, z'
loop_
 _atom_site_type_symbol
 _atom_site_label
 _atom_site_symmetry_multiplicity
 _atom_site_fract_x
 _atom_site_fract_y
 _atom_site_fract_z
 _atom_site_occupancy
  Mg  Mg0  1  0.611132  0.148687  0.628202  1
  Mg  Mg1  1  0.388868  0.851313  0.371798  1
  Mg  Mg2  1  0.611132  0.648687  0.871798  1
  Mg  Mg3  1  0.111132  0.851313  0.871798  1
  Mg  Mg4  1  0.888868  0.148687  0.128202  1
  Mg  Mg5  1  0.388868  0.351313  0.128202  1
  Mg  Mg6  1  0.111132  0.351313  0.628202  1
  Mg  Mg7  1  0.888868  0.648687  0.371798  1
  Si  Si8  1  0.567512  0.670332  0.228311  1
  Si  Si9  1  0.733981  0.837564  0.518795  1
  Si  Si10  1  0.766019  0.837564  0.018795  1
  Si  Si11  1  0.932488  0.170332  0.771689  1
  Si  Si12  1  0.067512  0.329668  0.271689  1
  Si  Si13  1  0.432488  0.829668  0.728311  1
  Si  Si14  1  0.233981  0.662436  0.518795  1
  Si  Si15  1  0.733981  0.337564  0.981205  1
  Si  Si16  1  0.766019  0.337564  0.481205  1
  Si  Si17  1  0.932488  0.670332  0.728311  1
  Si  Si18  1  0.432488  0.329668  0.771689  1
  Si  Si19  1  0.567512  0.170332  0.271689  1
  Si  Si20  1  0.266019  0.162436  0.481205  1
  Si  Si21  1  0.067512  0.829668  0.228311  1
  Si  Si22  1  0.266019  0.662436  0.018795  1
  Si  Si23  1  0.233981  0.162436  0.981205  1
  W  W24  1  0.371273  0.971662  0.123329  1
  W  W25  1  0.628727  0.028338  0.876671  1
  W  W26  1  0.871273  0.028338  0.376671  1
  W  W27  1  0.128727  0.971662  0.623329  1
  W  W28  1  0.371273  0.471662  0.376671  1
  W  W29  1  0.628727  0.528338  0.623329  1
  W  W30  1  0.871273  0.528338  0.123329  1
  W  W31  1  0.128727  0.471662  0.876671  1
  O  O32  1  0.957074  0.515459  0.691626  1
  O  O33  1  0.279754  0.015318  0.937754  1
  O  O34  1  0.042926  0.484541  0.308374  1
  O  O35  1  0.730064  0.339625  0.068359  1
  O  O36  1  0.230064  0.160375  0.068359  1
  O  O37  1  0.962594  0.229031  0.957825  1
  O  O38  1  0.920064  0.692126  0.812369  1
  O  O39  1  0.079936  0.807874  0.312369  1
  O  O40  1  0.730064  0.839625  0.431641  1
  O  O41  1  0.920064  0.192126  0.687631  1
  O  O42  1  0.457074  0.484541  0.808374  1
  O  O43  1  0.769936  0.339625  0.568359  1
  O  O44  1  0.720246  0.984682  0.062246  1
  O  O45  1  0.420064  0.807874  0.812369  1
  O  O46  1  0.542926  0.015459  0.308374  1
  O  O47  1  0.279754  0.515318  0.562246  1
  O  O48  1  0.457074  0.984541  0.691626  1
  O  O49  1  0.154024  0.776313  0.694497  1
  O  O50  1  0.345976  0.776313  0.194497  1
  O  O51  1  0.537406  0.729031  0.042175  1
  O  O52  1  0.769936  0.839625  0.931641  1
  O  O53  1  0.579936  0.692126  0.312369  1
  O  O54  1  0.779754  0.484682  0.937754  1
  O  O55  1  0.154024  0.276313  0.805503  1
  O  O56  1  0.269936  0.160375  0.568359  1
  O  O57  1  0.579936  0.192126  0.187631  1
  O  O58  1  0.720246  0.484682  0.437754  1
  O  O59  1  0.230064  0.660375  0.431641  1
  O  O60  1  0.220246  0.515318  0.062246  1
  O  O61  1  0.654024  0.723687  0.694497  1
  O  O62  1  0.042926  0.984541  0.191626  1
  O  O63  1  0.845976  0.723687  0.194497  1
  O  O64  1  0.845976  0.223687  0.305503  1
  O  O65  1  0.779754  0.984682  0.562246  1
  O  O66  1  0.269936  0.660375  0.931641  1
  O  O67  1  0.220246  0.015318  0.437754  1
  O  O68  1  0.345976  0.276313  0.305503  1
  O  O69  1  0.037406  0.770969  0.042175  1
  O  O70  1  0.462594  0.770969  0.542175  1
  O  O71  1  0.654024  0.223687  0.805503  1
  O  O72  1  0.462594  0.270969  0.957825  1
  O  O73  1  0.537406  0.229031  0.457825  1
  O  O74  1  0.037406  0.270969  0.457825  1
  O  O75  1  0.420064  0.307874  0.687631  1
  O  O76  1  0.542926  0.515459  0.191626  1
  O  O77  1  0.962594  0.729031  0.542175  1
  O  O78  1  0.079936  0.307874  0.187631  1
  O  O79  1  0.957074  0.015459  0.808374  1
