# generated using pymatgen
data_MgFeP2O7
_symmetry_space_group_name_H-M   'P 1'
_cell_length_a   7.07795957
_cell_length_b   8.49339536
_cell_length_c   9.20494711
_cell_angle_alpha   90.00000000
_cell_angle_beta   112.52622496
_cell_angle_gamma   90.00000000
_symmetry_Int_Tables_number   1
_chemical_formula_structural   MgFeP2O7
_chemical_formula_sum   'Mg4 Fe4 P8 O28'
_cell_volume   511.14447377
_cell_formula_units_Z   4
loop_
 _symmetry_equiv_pos_site_id
 _symmetry_equiv_pos_as_xyz
  1  'x, y, z'
loop_
 _atom_site_type_symbol
 _atom_site_label
 _atom_site_symmetry_multiplicity
 _atom_site_fract_x
 _atom_site_fract_y
 _atom_site_fract_z
 _atom_site_occupancy
  Mg  Mg0  1  0.123498  0.939976  0.818812  1
  Mg  Mg1  1  0.376502  0.439976  0.681188  1
  Mg  Mg2  1  0.623498  0.560024  0.318812  1
  Mg  Mg3  1  0.876502  0.060024  0.181188  1
  Fe  Fe4  1  0.374868  0.068776  0.608578  1
  Fe  Fe5  1  0.625132  0.931224  0.391422  1
  Fe  Fe6  1  0.125132  0.568776  0.891422  1
  Fe  Fe7  1  0.874868  0.431224  0.108578  1
  P  P8  1  0.180892  0.735242  0.242378  1
  P  P9  1  0.435906  0.225706  0.968499  1
  P  P10  1  0.680892  0.764758  0.742378  1
  P  P11  1  0.935906  0.274294  0.468499  1
  P  P12  1  0.319108  0.235242  0.257622  1
  P  P13  1  0.064094  0.725706  0.531501  1
  P  P14  1  0.564094  0.774294  0.031501  1
  P  P15  1  0.819108  0.264758  0.757622  1
  O  O16  1  0.350232  0.176739  0.099915  1
  O  O17  1  0.575499  0.608791  0.689414  1
  O  O18  1  0.075499  0.891209  0.189414  1
  O  O19  1  0.349114  0.387392  0.896321  1
  O  O20  1  0.649768  0.823261  0.900085  1
  O  O21  1  0.407541  0.100928  0.377208  1
  O  O22  1  0.650886  0.612608  0.103679  1
  O  O23  1  0.359074  0.091516  0.849086  1
  O  O24  1  0.171290  0.267970  0.548762  1
  O  O25  1  0.592459  0.899072  0.622792  1
  O  O26  1  0.907541  0.399072  0.877208  1
  O  O27  1  0.915782  0.760865  0.795951  1
  O  O28  1  0.584218  0.260865  0.704049  1
  O  O29  1  0.850232  0.323261  0.599915  1
  O  O30  1  0.092459  0.600928  0.122792  1
  O  O31  1  0.924501  0.108791  0.810586  1
  O  O32  1  0.084218  0.239135  0.204049  1
  O  O33  1  0.640926  0.908484  0.150914  1
  O  O34  1  0.671290  0.232030  0.048762  1
  O  O35  1  0.328710  0.767970  0.951238  1
  O  O36  1  0.150886  0.887392  0.603679  1
  O  O37  1  0.859074  0.408483  0.349086  1
  O  O38  1  0.140926  0.591516  0.650914  1
  O  O39  1  0.424501  0.391209  0.310586  1
  O  O40  1  0.415782  0.739135  0.295951  1
  O  O41  1  0.849114  0.112608  0.396321  1
  O  O42  1  0.828710  0.732030  0.451238  1
  O  O43  1  0.149768  0.676739  0.400085  1
