# generated using pymatgen
data_NiAs2O7
_symmetry_space_group_name_H-M   'P 1'
_cell_length_a   6.90611403
_cell_length_b   9.05567307
_cell_length_c   9.87936674
_cell_angle_alpha   90.00000000
_cell_angle_beta   101.88843177
_cell_angle_gamma   90.00000000
_symmetry_Int_Tables_number   1
_chemical_formula_structural   NiAs2O7
_chemical_formula_sum   'Ni4 As8 O28'
_cell_volume   604.59823421
_cell_formula_units_Z   4
loop_
 _symmetry_equiv_pos_site_id
 _symmetry_equiv_pos_as_xyz
  1  'x, y, z'
loop_
 _atom_site_type_symbol
 _atom_site_label
 _atom_site_symmetry_multiplicity
 _atom_site_fract_x
 _atom_site_fract_y
 _atom_site_fract_z
 _atom_site_occupancy
  Ni  Ni0  1  0.782043  0.061808  0.683469  1
  Ni  Ni1  1  0.217957  0.561808  0.816531  1
  Ni  Ni2  1  0.217957  0.938192  0.316531  1
  Ni  Ni3  1  0.782043  0.438192  0.183469  1
  As  As4  1  0.403082  0.245189  0.747879  1
  As  As5  1  0.596918  0.745189  0.752121  1
  As  As6  1  0.596918  0.754811  0.252121  1
  As  As7  1  0.403082  0.254811  0.247879  1
  As  As8  1  0.046737  0.295618  0.975996  1
  As  As9  1  0.953263  0.795618  0.524004  1
  As  As10  1  0.953263  0.704382  0.024004  1
  As  As11  1  0.046737  0.204382  0.475996  1
  O  O12  1  0.842089  0.310167  0.048926  1
  O  O13  1  0.157911  0.810167  0.451074  1
  O  O14  1  0.157911  0.689833  0.951074  1
  O  O15  1  0.842089  0.189833  0.548926  1
  O  O16  1  0.369337  0.434513  0.734962  1
  O  O17  1  0.630663  0.934513  0.765038  1
  O  O18  1  0.630663  0.565487  0.265038  1
  O  O19  1  0.369337  0.065487  0.234962  1
  O  O20  1  0.358140  0.161233  0.893880  1
  O  O21  1  0.641860  0.661233  0.606120  1
  O  O22  1  0.641860  0.838767  0.106120  1
  O  O23  1  0.358140  0.338767  0.393880  1
  O  O24  1  0.257838  0.151330  0.602425  1
  O  O25  1  0.742162  0.651330  0.897575  1
  O  O26  1  0.742162  0.848670  0.397575  1
  O  O27  1  0.257838  0.348670  0.102425  1
  O  O28  1  0.039163  0.081332  0.342075  1
  O  O29  1  0.960837  0.581332  0.157925  1
  O  O30  1  0.960837  0.918668  0.657925  1
  O  O31  1  0.039163  0.418668  0.842075  1
  O  O32  1  0.644335  0.273976  0.234129  1
  O  O33  1  0.355665  0.773976  0.265871  1
  O  O34  1  0.355665  0.726024  0.765871  1
  O  O35  1  0.644335  0.226024  0.734129  1
  O  O36  1  0.047709  0.379194  0.409550  1
  O  O37  1  0.952291  0.879194  0.090450  1
  O  O38  1  0.952291  0.620806  0.590450  1
  O  O39  1  0.047709  0.120806  0.909550  1
