# generated using pymatgen
data_Cr3O8
_symmetry_space_group_name_H-M   'P 1'
_cell_length_a   5.81084921
_cell_length_b   5.81084877
_cell_length_c   10.20799705
_cell_angle_alpha   90.00000000
_cell_angle_beta   90.00000000
_cell_angle_gamma   119.99999830
_symmetry_Int_Tables_number   1
_chemical_formula_structural   Cr3O8
_chemical_formula_sum   'Cr6 O16'
_cell_volume   298.50413624
_cell_formula_units_Z   2
loop_
 _symmetry_equiv_pos_site_id
 _symmetry_equiv_pos_as_xyz
  1  'x, y, z'
loop_
 _atom_site_type_symbol
 _atom_site_label
 _atom_site_symmetry_multiplicity
 _atom_site_fract_x
 _atom_site_fract_y
 _atom_site_fract_z
 _atom_site_occupancy
  Cr  Cr0  1  0.665999  0.833000  0.250090  1
  Cr  Cr1  1  0.833001  0.167001  0.750090  1
  Cr  Cr2  1  0.167001  0.334002  0.250090  1
  Cr  Cr3  1  0.832999  0.665999  0.750090  1
  Cr  Cr4  1  0.334002  0.167001  0.750090  1
  Cr  Cr5  1  0.167001  0.833000  0.250090  1
  O  O6  1  0.850072  0.149929  0.155260  1
  O  O7  1  0.700142  0.850072  0.655259  1
  O  O8  1  0.149929  0.299859  0.655259  1
  O  O9  1  0.850071  0.700142  0.155260  1
  O  O10  1  0.299858  0.149929  0.155260  1
  O  O11  1  0.149929  0.850072  0.655259  1
  O  O12  1  0.517207  0.482792  0.846371  1
  O  O13  1  0.034416  0.517207  0.346370  1
  O  O14  1  0.482793  0.965585  0.346370  1
  O  O15  1  0.517207  0.034416  0.846371  1
  O  O16  1  -0.000000  -0.000000  0.349012  1
  O  O17  1  -0.000000  -0.000000  0.849012  1
  O  O18  1  0.333333  0.666666  0.150971  1
  O  O19  1  0.965583  0.482792  0.846371  1
  O  O20  1  0.482792  0.517207  0.346370  1
  O  O21  1  0.666667  0.333334  0.650971  1
