# generated using pymatgen
data_Cu2O3
_symmetry_space_group_name_H-M   'P 1'
_cell_length_a   2.96695053
_cell_length_b   5.10585598
_cell_length_c   14.81817805
_cell_angle_alpha   90.00000000
_cell_angle_beta   90.00000000
_cell_angle_gamma   106.89052074
_symmetry_Int_Tables_number   1
_chemical_formula_structural   Cu2O3
_chemical_formula_sum   'Cu8 O12'
_cell_volume   214.79433875
_cell_formula_units_Z   4
loop_
 _symmetry_equiv_pos_site_id
 _symmetry_equiv_pos_as_xyz
  1  'x, y, z'
loop_
 _atom_site_type_symbol
 _atom_site_label
 _atom_site_symmetry_multiplicity
 _atom_site_fract_x
 _atom_site_fract_y
 _atom_site_fract_z
 _atom_site_occupancy
  Cu  Cu0  1  0.864123  0.728249  0.045244  1
  Cu  Cu1  1  0.135875  0.271750  0.954756  1
  Cu  Cu2  1  0.864123  0.728249  0.454756  1
  Cu  Cu3  1  0.135875  0.271750  0.545244  1
  Cu  Cu4  1  0.405958  0.811914  0.636484  1
  Cu  Cu5  1  0.594043  0.188086  0.363517  1
  Cu  Cu6  1  0.594043  0.188086  0.136483  1
  Cu  Cu7  1  0.405958  0.811914  0.863516  1
  O  O8  1  0.499999  0.000000  0.500000  1
  O  O9  1  0.499999  0.000000  0.000000  1
  O  O10  1  0.032803  0.065606  0.849326  1
  O  O11  1  0.967197  0.934394  0.150675  1
  O  O12  1  0.967197  0.934394  0.349325  1
  O  O13  1  0.032803  0.065606  0.650675  1
  O  O14  1  0.781983  0.563968  0.924501  1
  O  O15  1  0.218016  0.436033  0.075499  1
  O  O16  1  0.218016  0.436033  0.424501  1
  O  O17  1  0.781983  0.563968  0.575499  1
  O  O18  1  0.325057  0.650115  0.750000  1
  O  O19  1  0.674941  0.349884  0.250000  1
