# generated using pymatgen
data_MgCu2(WO4)2
_symmetry_space_group_name_H-M   'P 1'
_cell_length_a   6.67683893
_cell_length_b   8.65838989
_cell_length_c   12.68636639
_cell_angle_alpha   90.00000000
_cell_angle_beta   92.01504217
_cell_angle_gamma   90.00000000
_symmetry_Int_Tables_number   1
_chemical_formula_structural   MgCu2(WO4)2
_chemical_formula_sum   'Mg4 Cu8 W8 O32'
_cell_volume   732.95388285
_cell_formula_units_Z   4
loop_
 _symmetry_equiv_pos_site_id
 _symmetry_equiv_pos_as_xyz
  1  'x, y, z'
loop_
 _atom_site_type_symbol
 _atom_site_label
 _atom_site_symmetry_multiplicity
 _atom_site_fract_x
 _atom_site_fract_y
 _atom_site_fract_z
 _atom_site_occupancy
  Mg  Mg0  1  0.110051  0.161899  0.052594  1
  Mg  Mg1  1  0.889949  0.838101  0.947406  1
  Mg  Mg2  1  0.889949  0.661899  0.447406  1
  Mg  Mg3  1  0.110051  0.338101  0.552594  1
  Cu  Cu4  1  0.769878  0.185025  0.866518  1
  Cu  Cu5  1  0.375605  0.051961  0.617554  1
  Cu  Cu6  1  0.624395  0.948039  0.382446  1
  Cu  Cu7  1  0.230122  0.814975  0.133482  1
  Cu  Cu8  1  0.769878  0.314975  0.366518  1
  Cu  Cu9  1  0.375605  0.448039  0.117554  1
  Cu  Cu10  1  0.230122  0.685025  0.633482  1
  Cu  Cu11  1  0.624395  0.551961  0.882446  1
  W  W12  1  0.097415  0.456126  0.844417  1
  W  W13  1  0.097415  0.043874  0.344417  1
  W  W14  1  0.612227  0.078218  0.129696  1
  W  W15  1  0.902585  0.956126  0.655583  1
  W  W16  1  0.387773  0.921782  0.870304  1
  W  W17  1  0.387773  0.578218  0.370304  1
  W  W18  1  0.612227  0.421782  0.629696  1
  W  W19  1  0.902585  0.543874  0.155583  1
  O  O20  1  0.044141  0.234608  0.403570  1
  O  O21  1  0.659699  0.012696  0.602431  1
  O  O22  1  0.178734  0.568045  0.464111  1
  O  O23  1  0.821266  0.068045  0.035889  1
  O  O24  1  0.044141  0.265392  0.903570  1
  O  O25  1  0.955859  0.765392  0.596430  1
  O  O26  1  0.079029  0.108609  0.613821  1
  O  O27  1  0.505244  0.888797  0.135974  1
  O  O28  1  0.505244  0.611203  0.635974  1
  O  O29  1  0.298287  0.871270  0.736638  1
  O  O30  1  0.701713  0.371270  0.763362  1
  O  O31  1  0.494756  0.111203  0.864026  1
  O  O32  1  0.920971  0.891391  0.386179  1
  O  O33  1  0.881311  0.550996  0.298605  1
  O  O34  1  0.410707  0.292542  0.582910  1
  O  O35  1  0.410707  0.207458  0.082910  1
  O  O36  1  0.118689  0.050996  0.201395  1
  O  O37  1  0.494756  0.388797  0.364026  1
  O  O38  1  0.118689  0.449004  0.701395  1
  O  O39  1  0.821266  0.431955  0.535889  1
  O  O40  1  0.659699  0.487304  0.102431  1
  O  O41  1  0.701713  0.128730  0.263362  1
  O  O42  1  0.955859  0.734608  0.096430  1
  O  O43  1  0.079029  0.391391  0.113821  1
  O  O44  1  0.178734  0.931955  0.964111  1
  O  O45  1  0.589293  0.792542  0.917090  1
  O  O46  1  0.340301  0.987304  0.397569  1
  O  O47  1  0.340301  0.512696  0.897569  1
  O  O48  1  0.920971  0.608609  0.886179  1
  O  O49  1  0.589293  0.707458  0.417090  1
  O  O50  1  0.298287  0.628730  0.236638  1
  O  O51  1  0.881311  0.949004  0.798605  1
