# generated using pymatgen
data_SrV(PO4)2
_symmetry_space_group_name_H-M   'P 1'
_cell_length_a   5.84881380
_cell_length_b   7.14883287
_cell_length_c   9.03697235
_cell_angle_alpha   108.91530858
_cell_angle_beta   102.07406400
_cell_angle_gamma   99.72409308
_symmetry_Int_Tables_number   1
_chemical_formula_structural   SrV(PO4)2
_chemical_formula_sum   'Sr2 V2 P4 O16'
_cell_volume   337.90611427
_cell_formula_units_Z   2
loop_
 _symmetry_equiv_pos_site_id
 _symmetry_equiv_pos_as_xyz
  1  'x, y, z'
loop_
 _atom_site_type_symbol
 _atom_site_label
 _atom_site_symmetry_multiplicity
 _atom_site_fract_x
 _atom_site_fract_y
 _atom_site_fract_z
 _atom_site_occupancy
  Sr  Sr0  1  0.244018  0.764692  0.037450  1
  Sr  Sr1  1  0.755982  0.235308  0.962550  1
  V  V2  1  0.691494  0.822783  0.550884  1
  V  V3  1  0.308506  0.177217  0.449116  1
  P  P4  1  0.404339  0.429677  0.230105  1
  P  P5  1  0.595661  0.570323  0.769895  1
  P  P6  1  0.847463  0.024649  0.302499  1
  P  P7  1  0.152537  0.975351  0.697501  1
  O  O8  1  0.824807  0.568591  0.885851  1
  O  O9  1  0.627071  0.456526  0.173274  1
  O  O10  1  0.639728  0.779702  0.735801  1
  O  O11  1  0.944308  0.087911  0.703964  1
  O  O12  1  0.372929  0.543474  0.826726  1
  O  O13  1  0.988450  0.755740  0.568165  1
  O  O14  1  0.011550  0.244260  0.431835  1
  O  O15  1  0.284451  0.982751  0.862715  1
  O  O16  1  0.360272  0.220298  0.264199  1
  O  O17  1  0.715549  0.017249  0.137285  1
  O  O18  1  0.175193  0.431409  0.114149  1
  O  O19  1  0.440609  0.603606  0.401043  1
  O  O20  1  0.559391  0.396394  0.598957  1
  O  O21  1  0.656147  0.948711  0.383503  1
  O  O22  1  0.055692  0.912089  0.296036  1
  O  O23  1  0.343853  0.051289  0.616497  1
