# generated using pymatgen
data_Mg(MoO2)4
_symmetry_space_group_name_H-M   'P 1'
_cell_length_a   3.20968060
_cell_length_b   7.83187168
_cell_length_c   7.80010964
_cell_angle_alpha   79.49927336
_cell_angle_beta   78.62719504
_cell_angle_gamma   78.04790710
_symmetry_Int_Tables_number   1
_chemical_formula_structural   Mg(MoO2)4
_chemical_formula_sum   'Mg1 Mo4 O8'
_cell_volume   186.00506458
_cell_formula_units_Z   1
loop_
 _symmetry_equiv_pos_site_id
 _symmetry_equiv_pos_as_xyz
  1  'x, y, z'
loop_
 _atom_site_type_symbol
 _atom_site_label
 _atom_site_symmetry_multiplicity
 _atom_site_fract_x
 _atom_site_fract_y
 _atom_site_fract_z
 _atom_site_occupancy
  Mg  Mg0  1  0.328067  0.142695  0.209158  1
  Mo  Mo1  1  0.651160  0.169269  0.563844  1
  Mo  Mo2  1  0.109920  0.511489  0.207310  1
  Mo  Mo3  1  0.853914  0.475327  0.834387  1
  Mo  Mo4  1  0.355283  0.810451  0.490640  1
  O  O5  1  0.873532  0.666048  0.606088  1
  O  O6  1  0.474580  0.333485  0.737383  1
  O  O7  1  0.531728  0.644400  0.283288  1
  O  O8  1  0.169566  0.301196  0.406451  1
  O  O9  1  0.173523  0.014620  0.660471  1
  O  O10  1  0.790183  0.320994  0.107016  1
  O  O11  1  0.830891  0.000953  0.347221  1
  O  O12  1  0.235816  0.599713  0.955534  1
