# generated using pymatgen
data_Co2O3
_symmetry_space_group_name_H-M   'P 1'
_cell_length_a   3.01849572
_cell_length_b   5.15061041
_cell_length_c   15.21636564
_cell_angle_alpha   90.00000000
_cell_angle_beta   90.00000000
_cell_angle_gamma   107.03902743
_symmetry_Int_Tables_number   1
_chemical_formula_structural   Co2O3
_chemical_formula_sum   'Co8 O12'
_cell_volume   226.18612724
_cell_formula_units_Z   4
loop_
 _symmetry_equiv_pos_site_id
 _symmetry_equiv_pos_as_xyz
  1  'x, y, z'
loop_
 _atom_site_type_symbol
 _atom_site_label
 _atom_site_symmetry_multiplicity
 _atom_site_fract_x
 _atom_site_fract_y
 _atom_site_fract_z
 _atom_site_occupancy
  Co  Co0  1  0.861961  0.723925  0.047559  1
  Co  Co1  1  0.138037  0.276074  0.952441  1
  Co  Co2  1  0.861961  0.723925  0.452441  1
  Co  Co3  1  0.138037  0.276074  0.547559  1
  Co  Co4  1  0.408283  0.816564  0.640046  1
  Co  Co5  1  0.591717  0.183436  0.359955  1
  Co  Co6  1  0.591717  0.183436  0.140045  1
  Co  Co7  1  0.408283  0.816564  0.859954  1
  O  O8  1  0.499999  -0.000000  0.500000  1
  O  O9  1  0.499999  -0.000000  -0.000000  1
  O  O10  1  0.035565  0.071131  0.852819  1
  O  O11  1  0.964435  0.928869  0.147182  1
  O  O12  1  0.964435  0.928869  0.352818  1
  O  O13  1  0.035565  0.071131  0.647182  1
  O  O14  1  0.780454  0.560911  0.926775  1
  O  O15  1  0.219545  0.439090  0.073225  1
  O  O16  1  0.219545  0.439090  0.426775  1
  O  O17  1  0.780454  0.560911  0.573225  1
  O  O18  1  0.339995  0.679991  0.750000  1
  O  O19  1  0.660003  0.320008  0.250000  1
