# generated using pymatgen
data_MgV(Si2O5)2
_symmetry_space_group_name_H-M   'P 1'
_cell_length_a   7.33714266
_cell_length_b   7.33714266
_cell_length_c   14.97201929
_cell_angle_alpha   90.00000000
_cell_angle_beta   90.00000000
_cell_angle_gamma   90.00000000
_symmetry_Int_Tables_number   1
_chemical_formula_structural   MgV(Si2O5)2
_chemical_formula_sum   'Mg4 V4 Si16 O40'
_cell_volume   805.99863210
_cell_formula_units_Z   4
loop_
 _symmetry_equiv_pos_site_id
 _symmetry_equiv_pos_as_xyz
  1  'x, y, z'
loop_
 _atom_site_type_symbol
 _atom_site_label
 _atom_site_symmetry_multiplicity
 _atom_site_fract_x
 _atom_site_fract_y
 _atom_site_fract_z
 _atom_site_occupancy
  Mg  Mg0  1  0.250000  0.750000  0.500000  1
  Mg  Mg1  1  0.750000  0.250000  0.500000  1
  Mg  Mg2  1  0.750000  0.250000  -0.000000  1
  Mg  Mg3  1  0.250000  0.750000  -0.000000  1
  V  V4  1  0.250000  0.250000  0.571788  1
  V  V5  1  0.750000  0.750000  0.928212  1
  V  V6  1  0.750000  0.750000  0.428212  1
  V  V7  1  0.250000  0.250000  0.071788  1
  Si  Si8  1  0.909552  0.490832  0.645624  1
  Si  Si9  1  0.590448  0.009168  0.645624  1
  Si  Si10  1  0.990832  0.409552  0.854376  1
  Si  Si11  1  0.490832  0.590448  0.645624  1
  Si  Si12  1  0.009168  0.909552  0.645624  1
  Si  Si13  1  0.090448  0.990832  0.854376  1
  Si  Si14  1  0.409552  0.509168  0.854376  1
  Si  Si15  1  0.509168  0.090448  0.854376  1
  Si  Si16  1  0.090448  0.509168  0.354376  1
  Si  Si17  1  0.409552  0.990832  0.354376  1
  Si  Si18  1  0.009168  0.590448  0.145624  1
  Si  Si19  1  0.509168  0.409552  0.354376  1
  Si  Si20  1  0.990832  0.090448  0.354376  1
  Si  Si21  1  0.909552  0.009168  0.145624  1
  Si  Si22  1  0.590448  0.490832  0.145624  1
  Si  Si23  1  0.490832  0.909552  0.145624  1
  O  O24  1  0.979672  0.338237  0.575271  1
  O  O25  1  0.520328  0.161763  0.575271  1
  O  O26  1  0.838237  0.479672  0.924729  1
  O  O27  1  0.338237  0.520328  0.575271  1
  O  O28  1  0.161763  0.979672  0.575271  1
  O  O29  1  0.020328  0.838237  0.924729  1
  O  O30  1  0.479672  0.661763  0.924729  1
  O  O31  1  0.661763  0.020328  0.924729  1
  O  O32  1  0.020328  0.661763  0.424729  1
  O  O33  1  0.479672  0.838237  0.424729  1
  O  O34  1  0.161763  0.520328  0.075271  1
  O  O35  1  0.661763  0.479672  0.424729  1
  O  O36  1  0.838237  0.020328  0.424729  1
  O  O37  1  0.979672  0.161763  0.075271  1
  O  O38  1  0.520328  0.338237  0.075271  1
  O  O39  1  0.000748  0.309960  0.373930  1
  O  O40  1  0.338237  0.979672  0.075271  1
  O  O41  1  0.500748  0.809960  0.626070  1
  O  O42  1  0.190040  0.499252  0.873930  1
  O  O43  1  0.690040  0.500748  0.626070  1
  O  O44  1  0.809960  0.999252  0.626070  1
  O  O45  1  0.000748  0.190040  0.873930  1
  O  O46  1  0.499252  0.309960  0.873930  1
  O  O47  1  0.309960  0.000748  0.873930  1
  O  O48  1  0.442230  0.942230  0.250000  1
  O  O49  1  0.557770  0.442230  0.250000  1
  O  O50  1  0.942230  0.057771  0.250000  1
  O  O51  1  0.057771  0.557770  0.250000  1
  O  O52  1  0.557770  0.057771  0.750000  1
  O  O53  1  0.442230  0.557770  0.750000  1
  O  O54  1  0.057771  0.942230  0.750000  1
  O  O55  1  0.942230  0.442230  0.750000  1
  O  O56  1  0.690040  0.999252  0.126070  1
  O  O57  1  0.500748  0.690040  0.126070  1
  O  O58  1  0.999252  0.809960  0.126070  1
  O  O59  1  0.190040  0.000748  0.373930  1
  O  O60  1  0.309960  0.499252  0.373930  1
  O  O61  1  0.809960  0.500748  0.126070  1
  O  O62  1  0.499252  0.190040  0.373930  1
  O  O63  1  0.999252  0.690040  0.626070  1
