# generated using pymatgen
data_Bi2O5
_symmetry_space_group_name_H-M   'P 1'
_cell_length_a   5.53642558
_cell_length_b   8.01820693
_cell_length_c   10.50353345
_cell_angle_alpha   90.00000000
_cell_angle_beta   90.00000000
_cell_angle_gamma   97.86709936
_symmetry_Int_Tables_number   1
_chemical_formula_structural   Bi2O5
_chemical_formula_sum   'Bi8 O20'
_cell_volume   461.88654412
_cell_formula_units_Z   4
loop_
 _symmetry_equiv_pos_site_id
 _symmetry_equiv_pos_as_xyz
  1  'x, y, z'
loop_
 _atom_site_type_symbol
 _atom_site_label
 _atom_site_symmetry_multiplicity
 _atom_site_fract_x
 _atom_site_fract_y
 _atom_site_fract_z
 _atom_site_occupancy
  Bi  Bi0  1  0.752606  0.966839  0.597086  1
  Bi  Bi1  1  0.247394  0.033161  0.402914  1
  Bi  Bi2  1  0.747394  0.533161  0.097086  1
  Bi  Bi3  1  0.252606  0.466839  0.902914  1
  Bi  Bi4  1  0.124957  0.126678  0.110356  1
  Bi  Bi5  1  0.875043  0.873322  0.889644  1
  Bi  Bi6  1  0.624957  0.626678  0.389644  1
  Bi  Bi7  1  0.375043  0.373322  0.610356  1
  O  O8  1  0.418980  0.353630  0.065316  1
  O  O9  1  0.942783  0.332334  0.013974  1
  O  O10  1  0.513468  0.678520  0.205758  1
  O  O11  1  0.692613  0.559872  0.578451  1
  O  O12  1  0.882953  0.503686  0.281151  1
  O  O13  1  0.382953  0.003686  0.218849  1
  O  O14  1  0.442783  0.832334  0.486026  1
  O  O15  1  0.557217  0.167666  0.513974  1
  O  O16  1  0.307387  0.440128  0.421549  1
  O  O17  1  0.081020  0.146370  0.565316  1
  O  O18  1  0.117047  0.496314  0.718849  1
  O  O19  1  0.581020  0.646370  0.934684  1
  O  O20  1  0.918980  0.853630  0.434684  1
  O  O21  1  0.617047  0.996314  0.781151  1
  O  O22  1  0.807387  0.940128  0.078451  1
  O  O23  1  0.192613  0.059872  0.921549  1
  O  O24  1  0.486532  0.321480  0.794242  1
  O  O25  1  0.057217  0.667666  0.986026  1
  O  O26  1  0.986532  0.821480  0.705758  1
  O  O27  1  0.013468  0.178520  0.294242  1
