# generated using pymatgen
data_Ti2P2O9
_symmetry_space_group_name_H-M   'P 1'
_cell_length_a   6.34027294
_cell_length_b   7.82757333
_cell_length_c   14.04445151
_cell_angle_alpha   90.01912173
_cell_angle_beta   89.99964915
_cell_angle_gamma   90.00001575
_symmetry_Int_Tables_number   1
_chemical_formula_structural   Ti2P2O9
_chemical_formula_sum   'Ti8 P8 O36'
_cell_volume   697.01136185
_cell_formula_units_Z   4
loop_
 _symmetry_equiv_pos_site_id
 _symmetry_equiv_pos_as_xyz
  1  'x, y, z'
loop_
 _atom_site_type_symbol
 _atom_site_label
 _atom_site_symmetry_multiplicity
 _atom_site_fract_x
 _atom_site_fract_y
 _atom_site_fract_z
 _atom_site_occupancy
  Ti  Ti0  1  0.750005  0.353812  0.873534  1
  Ti  Ti1  1  0.250002  0.646164  0.126475  1
  Ti  Ti2  1  0.249993  0.853937  0.626453  1
  Ti  Ti3  1  0.750007  0.146029  0.373545  1
  Ti  Ti4  1  0.499915  0.999961  0.000015  1
  Ti  Ti5  1  0.499965  0.500009  0.500013  1
  Ti  Ti6  1  0.999954  0.499969  0.499993  1
  Ti  Ti7  1  0.999937  0.000036  0.999981  1
  P  P8  1  0.250004  0.353798  0.939234  1
  P  P9  1  0.749999  0.646215  0.060752  1
  P  P10  1  0.749997  0.853874  0.560769  1
  P  P11  1  0.250003  0.146111  0.439236  1
  P  P12  1  0.750006  0.392220  0.690366  1
  P  P13  1  0.750005  0.107884  0.190350  1
  P  P14  1  0.250004  0.892111  0.809644  1
  P  P15  1  0.250004  0.607804  0.309648  1
  O  O16  1  0.053065  0.589825  0.374979  1
  O  O17  1  0.553068  0.410182  0.625023  1
  O  O18  1  0.946942  0.089953  0.125026  1
  O  O19  1  0.446943  0.910044  0.874973  1
  O  O20  1  0.946943  0.410188  0.625025  1
  O  O21  1  0.446941  0.589819  0.374979  1
  O  O22  1  0.053068  0.910035  0.874976  1
  O  O23  1  0.553069  0.089964  0.125023  1
  O  O24  1  0.249995  0.334353  0.483872  1
  O  O25  1  0.749995  0.665632  0.516134  1
  O  O26  1  0.749990  0.834385  0.016106  1
  O  O27  1  0.249990  0.165626  0.983882  1
  O  O28  1  0.750054  0.134086  0.952393  1
  O  O29  1  0.250053  0.865943  0.047601  1
  O  O30  1  0.250028  0.634123  0.547595  1
  O  O31  1  0.750030  0.365871  0.452411  1
  O  O32  1  0.750005  0.225588  0.749787  1
  O  O33  1  0.250001  0.774423  0.250215  1
  O  O34  1  0.250000  0.725543  0.750100  1
  O  O35  1  0.750004  0.274448  0.249902  1
  O  O36  1  0.447037  0.138339  0.377743  1
  O  O37  1  0.947026  0.861668  0.622262  1
  O  O38  1  0.552967  0.638532  0.122257  1
  O  O39  1  0.052979  0.361494  0.877731  1
  O  O40  1  0.552972  0.861665  0.622259  1
  O  O41  1  0.052976  0.138326  0.377737  1
  O  O42  1  0.447036  0.361482  0.877739  1
  O  O43  1  0.947034  0.638540  0.122258  1
  O  O44  1  0.750005  0.515438  0.980787  1
  O  O45  1  0.249998  0.027983  0.728858  1
  O  O46  1  0.250003  0.472023  0.228772  1
  O  O47  1  0.750001  0.527995  0.771232  1
  O  O48  1  0.750000  0.984511  0.480768  1
  O  O49  1  0.250001  0.015471  0.519225  1
  O  O50  1  0.249998  0.484562  0.019216  1
  O  O51  1  0.749999  0.972005  0.271139  1
