# generated using pymatgen
data_VO2
_symmetry_space_group_name_H-M   'P 1'
_cell_length_a   6.04153084
_cell_length_b   6.01084809
_cell_length_c   17.69769069
_cell_angle_alpha   58.95174181
_cell_angle_beta   58.67238765
_cell_angle_gamma   59.93071150
_symmetry_Int_Tables_number   1
_chemical_formula_structural   VO2
_chemical_formula_sum   'V12 O24'
_cell_volume   445.88596024
_cell_formula_units_Z   12
loop_
 _symmetry_equiv_pos_site_id
 _symmetry_equiv_pos_as_xyz
  1  'x, y, z'
loop_
 _atom_site_type_symbol
 _atom_site_label
 _atom_site_symmetry_multiplicity
 _atom_site_fract_x
 _atom_site_fract_y
 _atom_site_fract_z
 _atom_site_occupancy
  V  V0  1  0.468650  0.510125  0.166130  1
  V  V1  1  0.509260  0.023186  0.165471  1
  V  V2  1  0.480504  0.512420  0.492746  1
  V  V3  1  0.020220  0.472975  0.164882  1
  V  V4  1  0.513205  0.024044  0.496549  1
  V  V5  1  0.507089  0.496488  0.654030  1
  V  V6  1  0.882372  0.881055  0.284388  1
  V  V7  1  0.497634  0.516808  0.819302  1
  V  V8  1  0.027498  0.477661  0.497127  1
  V  V9  1  0.497744  0.008749  0.834396  1
  V  V10  1  0.009590  0.489191  0.837270  1
  V  V11  1  0.874524  0.878280  0.956093  1
  O  O12  1  0.239580  0.264970  0.097706  1
  O  O13  1  0.252405  0.257875  0.242873  1
  O  O14  1  0.265142  0.703912  0.098083  1
  O  O15  1  0.701517  0.242553  0.096821  1
  O  O16  1  0.234064  0.248094  0.436341  1
  O  O17  1  0.256660  0.765929  0.241898  1
  O  O18  1  0.263754  0.260503  0.572858  1
  O  O19  1  0.749395  0.257230  0.239172  1
  O  O20  1  0.742284  0.744174  0.090205  1
  O  O21  1  0.252684  0.716427  0.433117  1
  O  O22  1  0.717405  0.234263  0.432586  1
  O  O23  1  0.767395  0.758848  0.238180  1
  O  O24  1  0.276839  0.276456  0.750981  1
  O  O25  1  0.302830  0.733676  0.579636  1
  O  O26  1  0.723045  0.294633  0.579656  1
  O  O27  1  0.277124  0.272467  0.902565  1
  O  O28  1  0.752622  0.746187  0.417500  1
  O  O29  1  0.277695  0.709343  0.748958  1
  O  O30  1  0.702660  0.284757  0.747119  1
  O  O31  1  0.734152  0.716318  0.579242  1
  O  O32  1  0.227277  0.771724  0.910533  1
  O  O33  1  0.765238  0.229442  0.912119  1
  O  O34  1  0.721839  0.710401  0.781549  1
  O  O35  1  0.764349  0.765082  0.912333  1
