# generated using pymatgen
data_Mg2Mn9O13
_symmetry_space_group_name_H-M   'P 1'
_cell_length_a   3.03871206
_cell_length_b   5.33097862
_cell_length_c   17.14738788
_cell_angle_alpha   97.89282695
_cell_angle_beta   90.28278555
_cell_angle_gamma   105.26278332
_symmetry_Int_Tables_number   1
_chemical_formula_structural   Mg2Mn9O13
_chemical_formula_sum   'Mg2 Mn9 O13'
_cell_volume   265.19420368
_cell_formula_units_Z   1
loop_
 _symmetry_equiv_pos_site_id
 _symmetry_equiv_pos_as_xyz
  1  'x, y, z'
loop_
 _atom_site_type_symbol
 _atom_site_label
 _atom_site_symmetry_multiplicity
 _atom_site_fract_x
 _atom_site_fract_y
 _atom_site_fract_z
 _atom_site_occupancy
  Mg  Mg0  1  0.225198  0.434225  0.227635  1
  Mg  Mg1  1  0.774802  0.565775  0.772365  1
  Mn  Mn2  1  0.500000  0.000000  0.500000  1
  Mn  Mn3  1  0.647094  0.293325  0.041024  1
  Mn  Mn4  1  0.352906  0.706675  0.958976  1
  Mn  Mn5  1  0.751396  0.498016  0.415548  1
  Mn  Mn6  1  0.248604  0.501984  0.584452  1
  Mn  Mn7  1  0.940374  0.873815  0.128278  1
  Mn  Mn8  1  0.059626  0.126185  0.871722  1
  Mn  Mn9  1  0.995494  0.983543  0.326733  1
  Mn  Mn10  1  0.004506  0.016457  0.673267  1
  O  O11  1  -0.000000  0.000000  0.000000  1
  O  O12  1  0.852833  0.705841  0.228278  1
  O  O13  1  0.147167  0.294159  0.771722  1
  O  O14  1  0.299578  0.593071  0.066502  1
  O  O15  1  0.700422  0.406929  0.933498  1
  O  O16  1  0.590715  0.181791  0.144583  1
  O  O17  1  0.409285  0.818209  0.855417  1
  O  O18  1  0.631063  0.260672  0.307526  1
  O  O19  1  0.368937  0.739328  0.692474  1
  O  O20  1  0.392555  0.786346  0.393262  1
  O  O21  1  0.607445  0.213654  0.606738  1
  O  O22  1  0.135000  0.255620  0.464792  1
  O  O23  1  0.865000  0.744380  0.535208  1
