# generated using pymatgen
data_Mg2W3O8
_symmetry_space_group_name_H-M   'P 1'
_cell_length_a   6.24750881
_cell_length_b   6.24750862
_cell_length_c   9.61873809
_cell_angle_alpha   90.00000000
_cell_angle_beta   90.00000000
_cell_angle_gamma   120.00000097
_symmetry_Int_Tables_number   1
_chemical_formula_structural   Mg2W3O8
_chemical_formula_sum   'Mg4 W6 O16'
_cell_volume   325.13406056
_cell_formula_units_Z   2
loop_
 _symmetry_equiv_pos_site_id
 _symmetry_equiv_pos_as_xyz
  1  'x, y, z'
loop_
 _atom_site_type_symbol
 _atom_site_label
 _atom_site_symmetry_multiplicity
 _atom_site_fract_x
 _atom_site_fract_y
 _atom_site_fract_z
 _atom_site_occupancy
  Mg  Mg0  1  0.666667  0.333334  0.027508  1
  Mg  Mg1  1  0.333333  0.666666  0.527509  1
  Mg  Mg2  1  0.666667  0.333334  0.407431  1
  Mg  Mg3  1  0.333333  0.666666  0.907432  1
  W  W4  1  0.664039  0.832020  0.240637  1
  W  W5  1  0.832021  0.167981  0.740637  1
  W  W6  1  0.167981  0.335962  0.240637  1
  W  W7  1  0.832019  0.664039  0.740637  1
  W  W8  1  0.335962  0.167981  0.740637  1
  W  W9  1  0.167981  0.832020  0.240637  1
  O  O10  1  0.829295  0.170706  0.147880  1
  O  O11  1  0.658588  0.829295  0.647879  1
  O  O12  1  0.170706  0.341413  0.647879  1
  O  O13  1  0.829294  0.658588  0.147880  1
  O  O14  1  0.341412  0.170706  0.147880  1
  O  O15  1  0.170706  0.829295  0.647879  1
  O  O16  1  0.519152  0.480847  0.874968  1
  O  O17  1  0.038304  0.519152  0.374967  1
  O  O18  1  0.480848  0.961697  0.374967  1
  O  O19  1  0.519152  0.038304  0.874968  1
  O  O20  1  -0.000000  -0.000000  0.349804  1
  O  O21  1  -0.000000  -0.000000  0.849804  1
  O  O22  1  0.333333  0.666666  0.118301  1
  O  O23  1  0.961695  0.480847  0.874968  1
  O  O24  1  0.480847  0.519152  0.374967  1
  O  O25  1  0.666667  0.333334  0.618301  1
