# generated using pymatgen
data_Mn(Si2O5)2
_symmetry_space_group_name_H-M   'P 1'
_cell_length_a   7.45135380
_cell_length_b   7.45135380
_cell_length_c   15.61167445
_cell_angle_alpha   90.00000000
_cell_angle_beta   90.00000000
_cell_angle_gamma   90.00000000
_symmetry_Int_Tables_number   1
_chemical_formula_structural   Mn(Si2O5)2
_chemical_formula_sum   'Mn4 Si16 O40'
_cell_volume   866.80190254
_cell_formula_units_Z   4
loop_
 _symmetry_equiv_pos_site_id
 _symmetry_equiv_pos_as_xyz
  1  'x, y, z'
loop_
 _atom_site_type_symbol
 _atom_site_label
 _atom_site_symmetry_multiplicity
 _atom_site_fract_x
 _atom_site_fract_y
 _atom_site_fract_z
 _atom_site_occupancy
  Mn  Mn0  1  0.250000  0.250000  0.583759  1
  Mn  Mn1  1  0.750000  0.750000  0.916241  1
  Mn  Mn2  1  0.750000  0.750000  0.416241  1
  Mn  Mn3  1  0.250000  0.250000  0.083759  1
  Si  Si4  1  0.923424  0.506508  0.649398  1
  Si  Si5  1  0.576576  0.993492  0.649398  1
  Si  Si6  1  0.006508  0.423424  0.850602  1
  Si  Si7  1  0.506508  0.576576  0.649398  1
  Si  Si8  1  0.993492  0.923424  0.649398  1
  Si  Si9  1  0.076576  0.006508  0.850602  1
  Si  Si10  1  0.423424  0.493492  0.850602  1
  Si  Si11  1  0.493492  0.076576  0.850602  1
  Si  Si12  1  0.076576  0.493492  0.350602  1
  Si  Si13  1  0.423424  0.006508  0.350602  1
  Si  Si14  1  0.993492  0.576576  0.149398  1
  Si  Si15  1  0.493492  0.423424  0.350602  1
  Si  Si16  1  0.006508  0.076576  0.350602  1
  Si  Si17  1  0.923424  0.993492  0.149398  1
  Si  Si18  1  0.576576  0.506508  0.149398  1
  Si  Si19  1  0.506508  0.923424  0.149398  1
  O  O20  1  0.022717  0.358429  0.589867  1
  O  O21  1  0.477283  0.141571  0.589867  1
  O  O22  1  0.858429  0.522717  0.910133  1
  O  O23  1  0.358429  0.477283  0.589867  1
  O  O24  1  0.141571  0.022717  0.589867  1
  O  O25  1  0.977283  0.858429  0.910133  1
  O  O26  1  0.522717  0.641571  0.910133  1
  O  O27  1  0.641571  0.977283  0.910133  1
  O  O28  1  0.977283  0.641571  0.410133  1
  O  O29  1  0.522717  0.858429  0.410133  1
  O  O30  1  0.141571  0.477283  0.089867  1
  O  O31  1  0.641571  0.522717  0.410133  1
  O  O32  1  0.858429  0.977283  0.410133  1
  O  O33  1  0.022717  0.141571  0.089867  1
  O  O34  1  0.477283  0.358429  0.089867  1
  O  O35  1  0.004075  0.291124  0.370163  1
  O  O36  1  0.358429  0.022717  0.089867  1
  O  O37  1  0.504075  0.791124  0.629837  1
  O  O38  1  0.208876  0.495925  0.870163  1
  O  O39  1  0.708876  0.504075  0.629837  1
  O  O40  1  0.791124  0.995925  0.629837  1
  O  O41  1  0.004075  0.208876  0.870163  1
  O  O42  1  0.495925  0.291124  0.870163  1
  O  O43  1  0.291124  0.004075  0.870163  1
  O  O44  1  0.457577  0.957576  0.250000  1
  O  O45  1  0.542423  0.457577  0.250000  1
  O  O46  1  0.957576  0.042423  0.250000  1
  O  O47  1  0.042423  0.542423  0.250000  1
  O  O48  1  0.542423  0.042423  0.750000  1
  O  O49  1  0.457577  0.542423  0.750000  1
  O  O50  1  0.042423  0.957576  0.750000  1
  O  O51  1  0.957576  0.457577  0.750000  1
  O  O52  1  0.708876  0.995925  0.129837  1
  O  O53  1  0.504075  0.708876  0.129837  1
  O  O54  1  0.995925  0.791124  0.129837  1
  O  O55  1  0.208876  0.004075  0.370163  1
  O  O56  1  0.291124  0.495925  0.370163  1
  O  O57  1  0.791124  0.504075  0.129837  1
  O  O58  1  0.495925  0.208876  0.370163  1
  O  O59  1  0.995925  0.708876  0.629837  1
