# generated using pymatgen
data_MgFe2(PO4)2
_symmetry_space_group_name_H-M   'P 1'
_cell_length_a   5.12891265
_cell_length_b   8.87978516
_cell_length_c   14.56630129
_cell_angle_alpha   86.18663468
_cell_angle_beta   79.86000213
_cell_angle_gamma   73.21404190
_symmetry_Int_Tables_number   1
_chemical_formula_structural   MgFe2(PO4)2
_chemical_formula_sum   'Mg4 Fe8 P8 O32'
_cell_volume   625.12821097
_cell_formula_units_Z   4
loop_
 _symmetry_equiv_pos_site_id
 _symmetry_equiv_pos_as_xyz
  1  'x, y, z'
loop_
 _atom_site_type_symbol
 _atom_site_label
 _atom_site_symmetry_multiplicity
 _atom_site_fract_x
 _atom_site_fract_y
 _atom_site_fract_z
 _atom_site_occupancy
  Mg  Mg0  1  0.440823  0.824381  0.876406  1
  Mg  Mg1  1  0.141610  0.675619  0.623594  1
  Mg  Mg2  1  0.858390  0.324381  0.376406  1
  Mg  Mg3  1  0.559177  0.175619  0.123594  1
  Fe  Fe4  1  0.203796  0.224370  0.966015  1
  Fe  Fe5  1  0.394180  0.275630  0.533985  1
  Fe  Fe6  1  0.796204  0.775630  0.033985  1
  Fe  Fe7  1  0.500000  0.500000  0.000000  1
  Fe  Fe8  1  0.605820  0.724370  0.466015  1
  Fe  Fe9  1  0.574801  0.750000  0.250000  1
  Fe  Fe10  1  0.425199  0.250000  0.750000  1
  Fe  Fe11  1  -0.000000  -0.000000  0.500000  1
  P  P12  1  0.063531  0.568033  0.855836  1
  P  P13  1  0.778131  0.430783  0.611205  1
  P  P14  1  0.936469  0.431967  0.144164  1
  P  P15  1  0.179882  0.930783  0.111205  1
  P  P16  1  0.512601  0.068033  0.355836  1
  P  P17  1  0.487399  0.931967  0.644164  1
  P  P18  1  0.221869  0.569217  0.388795  1
  P  P19  1  0.820118  0.069217  0.888795  1
  O  O20  1  0.725092  0.375186  0.099480  1
  O  O21  1  0.739289  0.914632  0.919445  1
  O  O22  1  0.800242  0.875186  0.599480  1
  O  O23  1  0.808976  0.296542  0.541104  1
  O  O24  1  0.215054  0.387118  0.072482  1
  O  O25  1  0.658043  0.394448  0.710195  1
  O  O26  1  0.646623  0.203458  0.958896  1
  O  O27  1  0.867925  0.956933  0.104656  1
  O  O28  1  0.191024  0.703458  0.458896  1
  O  O29  1  0.573367  0.585368  0.580555  1
  O  O30  1  0.842832  0.617616  0.144094  1
  O  O31  1  0.568315  0.141669  0.261184  1
  O  O32  1  0.260711  0.085368  0.080555  1
  O  O33  1  0.070488  0.456933  0.604656  1
  O  O34  1  0.274907  0.624814  0.900520  1
  O  O35  1  0.157168  0.382384  0.855906  1
  O  O36  1  0.028831  0.641669  0.761184  1
  O  O37  1  0.353377  0.796542  0.041104  1
  O  O38  1  0.395459  0.117616  0.644094  1
  O  O39  1  0.431685  0.858331  0.738816  1
  O  O40  1  0.929512  0.543067  0.395344  1
  O  O41  1  0.325346  0.887118  0.572482  1
  O  O42  1  0.132075  0.043067  0.895344  1
  O  O43  1  0.237314  0.894448  0.210195  1
  O  O44  1  0.426633  0.414632  0.419445  1
  O  O45  1  0.199758  0.124814  0.400520  1
  O  O46  1  0.971169  0.358331  0.238816  1
  O  O47  1  0.674654  0.112882  0.427518  1
  O  O48  1  0.784946  0.612882  0.927518  1
  O  O49  1  0.762686  0.105552  0.789805  1
  O  O50  1  0.341957  0.605552  0.289805  1
  O  O51  1  0.604541  0.882384  0.355906  1
