# generated using pymatgen
data_Mg(CoO2)2
_symmetry_space_group_name_H-M   'P 1'
_cell_length_a   5.98182477
_cell_length_b   5.98190976
_cell_length_c   17.91013974
_cell_angle_alpha   59.88017092
_cell_angle_beta   59.94003548
_cell_angle_gamma   59.91775197
_symmetry_Int_Tables_number   1
_chemical_formula_structural   Mg(CoO2)2
_chemical_formula_sum   'Mg6 Co12 O24'
_cell_volume   452.26802545
_cell_formula_units_Z   6
loop_
 _symmetry_equiv_pos_site_id
 _symmetry_equiv_pos_as_xyz
  1  'x, y, z'
loop_
 _atom_site_type_symbol
 _atom_site_label
 _atom_site_symmetry_multiplicity
 _atom_site_fract_x
 _atom_site_fract_y
 _atom_site_fract_z
 _atom_site_occupancy
  Mg  Mg0  1  0.122647  0.122472  0.044102  1
  Mg  Mg1  1  0.124249  0.124266  0.375704  1
  Mg  Mg2  1  0.498884  0.498757  0.001072  1
  Mg  Mg3  1  0.124440  0.124026  0.708982  1
  Mg  Mg4  1  0.876528  0.876602  0.290089  1
  Mg  Mg5  1  0.875170  0.875340  0.624798  1
  Co  Co6  1  0.002994  0.499858  0.166336  1
  Co  Co7  1  0.499119  0.499171  0.165880  1
  Co  Co8  1  0.999962  0.499101  0.499895  1
  Co  Co9  1  0.499756  0.003050  0.166368  1
  Co  Co10  1  0.499794  0.499901  0.332953  1
  Co  Co11  1  0.500474  0.500114  0.500412  1
  Co  Co12  1  0.001248  0.499863  0.833210  1
  Co  Co13  1  0.499297  0.000220  0.499810  1
  Co  Co14  1  0.499992  0.000888  0.833285  1
  Co  Co15  1  0.499877  0.500001  0.666835  1
  Co  Co16  1  0.499368  0.499726  0.833110  1
  Co  Co17  1  0.877849  0.877657  0.955417  1
  O  O18  1  0.251049  0.250507  0.093527  1
  O  O19  1  0.258902  0.257594  0.241212  1
  O  O20  1  0.251319  0.718268  0.093169  1
  O  O21  1  0.718444  0.250755  0.093171  1
  O  O22  1  0.284317  0.737657  0.246767  1
  O  O23  1  0.255786  0.257054  0.422537  1
  O  O24  1  0.737437  0.284587  0.246665  1
  O  O25  1  0.742420  0.743686  0.090677  1
  O  O26  1  0.259660  0.717305  0.421616  1
  O  O27  1  0.258966  0.259094  0.573909  1
  O  O28  1  0.740295  0.740441  0.245480  1
  O  O29  1  0.717632  0.258369  0.421371  1
  O  O30  1  0.280106  0.742587  0.578554  1
  O  O31  1  0.262582  0.263688  0.751318  1
  O  O32  1  0.742248  0.280124  0.577887  1
  O  O33  1  0.741833  0.741939  0.425554  1
  O  O34  1  0.258199  0.258817  0.908004  1
  O  O35  1  0.260978  0.719796  0.752964  1
  O  O36  1  0.741545  0.739839  0.579211  1
  O  O37  1  0.720122  0.262514  0.752198  1
  O  O38  1  0.276267  0.749178  0.908899  1
  O  O39  1  0.740893  0.740372  0.759450  1
  O  O40  1  0.748911  0.276086  0.908717  1
  O  O41  1  0.748431  0.748732  0.908889  1
