# generated using pymatgen
data_MgMnP2O7
_symmetry_space_group_name_H-M   'P 1'
_cell_length_a   7.11771377
_cell_length_b   8.56708945
_cell_length_c   9.22531424
_cell_angle_alpha   90.00000000
_cell_angle_beta   112.48472382
_cell_angle_gamma   90.00000000
_symmetry_Int_Tables_number   1
_chemical_formula_structural   MgMnP2O7
_chemical_formula_sum   'Mg4 Mn4 P8 O28'
_cell_volume   519.77846155
_cell_formula_units_Z   4
loop_
 _symmetry_equiv_pos_site_id
 _symmetry_equiv_pos_as_xyz
  1  'x, y, z'
loop_
 _atom_site_type_symbol
 _atom_site_label
 _atom_site_symmetry_multiplicity
 _atom_site_fract_x
 _atom_site_fract_y
 _atom_site_fract_z
 _atom_site_occupancy
  Mg  Mg0  1  0.120908  0.940040  0.818922  1
  Mg  Mg1  1  0.379092  0.440040  0.681078  1
  Mg  Mg2  1  0.620908  0.559960  0.318922  1
  Mg  Mg3  1  0.879092  0.059960  0.181078  1
  Mn  Mn4  1  0.373001  0.069635  0.609202  1
  Mn  Mn5  1  0.626999  0.930365  0.390798  1
  Mn  Mn6  1  0.126999  0.569635  0.890798  1
  Mn  Mn7  1  0.873001  0.430365  0.109202  1
  P  P8  1  0.180896  0.735415  0.242780  1
  P  P9  1  0.436402  0.223702  0.968654  1
  P  P10  1  0.680896  0.764585  0.742780  1
  P  P11  1  0.936402  0.276298  0.468654  1
  P  P12  1  0.319104  0.235415  0.257220  1
  P  P13  1  0.063598  0.723702  0.531346  1
  P  P14  1  0.563598  0.776298  0.031346  1
  P  P15  1  0.819104  0.264585  0.757220  1
  O  O16  1  0.350547  0.178241  0.100124  1
  O  O17  1  0.576333  0.609626  0.691216  1
  O  O18  1  0.076333  0.890374  0.191216  1
  O  O19  1  0.353774  0.384019  0.895451  1
  O  O20  1  0.649453  0.821759  0.899876  1
  O  O21  1  0.406829  0.102989  0.377328  1
  O  O22  1  0.646226  0.615981  0.104549  1
  O  O23  1  0.355599  0.090632  0.849578  1
  O  O24  1  0.170293  0.272916  0.548649  1
  O  O25  1  0.593171  0.897011  0.622671  1
  O  O26  1  0.906829  0.397011  0.877329  1
  O  O27  1  0.914599  0.761970  0.796131  1
  O  O28  1  0.585401  0.261970  0.703869  1
  O  O29  1  0.850547  0.321759  0.600124  1
  O  O30  1  0.093171  0.602989  0.122671  1
  O  O31  1  0.923667  0.109626  0.808784  1
  O  O32  1  0.085401  0.238030  0.203869  1
  O  O33  1  0.644401  0.909368  0.150422  1
  O  O34  1  0.670293  0.227084  0.048649  1
  O  O35  1  0.329707  0.772916  0.951351  1
  O  O36  1  0.146226  0.884019  0.604549  1
  O  O37  1  0.855599  0.409368  0.349578  1
  O  O38  1  0.144401  0.590632  0.650422  1
  O  O39  1  0.423667  0.390374  0.308784  1
  O  O40  1  0.414599  0.738030  0.296131  1
  O  O41  1  0.853774  0.115981  0.395451  1
  O  O42  1  0.829707  0.727084  0.451351  1
  O  O43  1  0.149453  0.678241  0.399876  1
