# generated using pymatgen
data_FePO4
_symmetry_space_group_name_H-M   'P 1'
_cell_length_a   5.01061380
_cell_length_b   9.29631236
_cell_length_c   14.07923746
_cell_angle_alpha   81.77231550
_cell_angle_beta   79.87395754
_cell_angle_gamma   74.33456117
_symmetry_Int_Tables_number   1
_chemical_formula_structural   FePO4
_chemical_formula_sum   'Fe8 P8 O32'
_cell_volume   618.44580615
_cell_formula_units_Z   8
loop_
 _symmetry_equiv_pos_site_id
 _symmetry_equiv_pos_as_xyz
  1  'x, y, z'
loop_
 _atom_site_type_symbol
 _atom_site_label
 _atom_site_symmetry_multiplicity
 _atom_site_fract_x
 _atom_site_fract_y
 _atom_site_fract_z
 _atom_site_occupancy
  Fe  Fe0  1  0.202566  0.228825  0.977326  1
  Fe  Fe1  1  0.409492  0.272460  0.523303  1
  Fe  Fe2  1  0.794212  0.772073  0.023245  1
  Fe  Fe3  1  0.502018  0.499149  0.999255  1
  Fe  Fe4  1  0.586627  0.729282  0.476634  1
  Fe  Fe5  1  0.673865  0.749560  0.249848  1
  Fe  Fe6  1  0.324924  0.251436  0.750309  1
  Fe  Fe7  1  0.999147  0.001506  0.500824  1
  P  P8  1  0.060715  0.569450  0.855988  1
  P  P9  1  0.777496  0.412241  0.621537  1
  P  P10  1  0.941338  0.431090  0.143585  1
  P  P11  1  0.187904  0.912061  0.121413  1
  P  P12  1  0.513811  0.068973  0.356522  1
  P  P13  1  0.484604  0.933276  0.644589  1
  P  P14  1  0.219496  0.589444  0.378483  1
  P  P15  1  0.810151  0.088530  0.879057  1
  O  O16  1  0.707783  0.393807  0.097422  1
  O  O17  1  0.860303  0.927442  0.929056  1
  O  O18  1  0.802418  0.898928  0.600589  1
  O  O19  1  0.758824  0.298609  0.551060  1
  O  O20  1  0.200321  0.391646  0.056791  1
  O  O21  1  0.568941  0.395358  0.713239  1
  O  O22  1  0.606053  0.199756  0.950512  1
  O  O23  1  0.900314  0.867920  0.139639  1
  O  O24  1  0.237043  0.702965  0.449235  1
  O  O25  1  0.713548  0.572259  0.569885  1
  O  O26  1  0.873535  0.611561  0.136996  1
  O  O27  1  0.595758  0.141832  0.260536  1
  O  O28  1  0.138449  0.073316  0.071763  1
  O  O29  1  0.090423  0.370307  0.640147  1
  O  O30  1  0.298928  0.604636  0.900618  1
  O  O31  1  0.125750  0.388983  0.862761  1
  O  O32  1  0.999265  0.642531  0.760146  1
  O  O33  1  0.391020  0.800912  0.049737  1
  O  O34  1  0.372425  0.113706  0.637092  1
  O  O35  1  0.401231  0.861847  0.740942  1
  O  O36  1  0.906655  0.631833  0.359563  1
  O  O37  1  0.355621  0.891420  0.557311  1
  O  O38  1  0.097139  0.133216  0.861118  1
  O  O39  1  0.322994  0.893519  0.213214  1
  O  O40  1  0.282443  0.429296  0.429915  1
  O  O41  1  0.196636  0.104909  0.401670  1
  O  O42  1  0.999714  0.358486  0.239785  1
  O  O43  1  0.644981  0.109355  0.443709  1
  O  O44  1  0.803646  0.609042  0.943472  1
  O  O45  1  0.675599  0.106851  0.787138  1
  O  O46  1  0.429098  0.605964  0.287059  1
  O  O47  1  0.623001  0.888575  0.363287  1
