# generated using pymatgen
data_BiMoO5
_symmetry_space_group_name_H-M   'P 1'
_cell_length_a   6.23285038
_cell_length_b   11.99877653
_cell_length_c   16.27411426
_cell_angle_alpha   90.00000000
_cell_angle_beta   90.00000000
_cell_angle_gamma   90.00000000
_symmetry_Int_Tables_number   1
_chemical_formula_structural   BiMoO5
_chemical_formula_sum   'Bi8 Mo8 O40'
_cell_volume   1217.08532939
_cell_formula_units_Z   8
loop_
 _symmetry_equiv_pos_site_id
 _symmetry_equiv_pos_as_xyz
  1  'x, y, z'
loop_
 _atom_site_type_symbol
 _atom_site_label
 _atom_site_symmetry_multiplicity
 _atom_site_fract_x
 _atom_site_fract_y
 _atom_site_fract_z
 _atom_site_occupancy
  Bi  Bi0  1  0.925482  0.819810  0.210006  1
  Bi  Bi1  1  0.074518  0.180190  0.789994  1
  Bi  Bi2  1  0.574518  0.319810  0.789994  1
  Bi  Bi3  1  0.074518  0.680190  0.710006  1
  Bi  Bi4  1  0.425482  0.180190  0.289994  1
  Bi  Bi5  1  0.425482  0.680190  0.210006  1
  Bi  Bi6  1  0.574518  0.819810  0.710006  1
  Bi  Bi7  1  0.925482  0.319810  0.289994  1
  Mo  Mo8  1  0.978403  0.397915  0.614991  1
  Mo  Mo9  1  0.521597  0.897915  0.385008  1
  Mo  Mo10  1  0.021597  0.602085  0.385008  1
  Mo  Mo11  1  0.478403  0.102085  0.614991  1
  Mo  Mo12  1  0.021597  0.102085  0.114992  1
  Mo  Mo13  1  0.978403  0.897915  0.885009  1
  Mo  Mo14  1  0.521597  0.397915  0.114992  1
  Mo  Mo15  1  0.478403  0.602085  0.885009  1
  O  O16  1  0.885418  0.297719  0.702162  1
  O  O17  1  0.251149  0.045998  0.072393  1
  O  O18  1  0.248851  0.545998  0.927607  1
  O  O19  1  0.228199  0.795887  0.151793  1
  O  O20  1  0.271801  0.295887  0.848207  1
  O  O21  1  0.885418  0.797719  0.797838  1
  O  O22  1  0.271801  0.795887  0.651793  1
  O  O23  1  0.614582  0.797719  0.297838  1
  O  O24  1  0.251149  0.545998  0.427607  1
  O  O25  1  0.114582  0.702281  0.297838  1
  O  O26  1  0.614582  0.297719  0.202162  1
  O  O27  1  0.620997  0.171807  0.540418  1
  O  O28  1  0.751149  0.954002  0.427607  1
  O  O29  1  0.771801  0.704113  0.651793  1
  O  O30  1  0.148062  0.010749  0.838103  1
  O  O31  1  0.751149  0.454002  0.072393  1
  O  O32  1  0.114582  0.202281  0.202162  1
  O  O33  1  0.728199  0.204113  0.348207  1
  O  O34  1  0.120997  0.828193  0.959582  1
  O  O35  1  0.248851  0.045998  0.572393  1
  O  O36  1  0.379003  0.828193  0.459582  1
  O  O37  1  0.851938  0.989251  0.161897  1
  O  O38  1  0.771801  0.204113  0.848207  1
  O  O39  1  0.648062  0.989251  0.661897  1
  O  O40  1  0.379003  0.328193  0.040418  1
  O  O41  1  0.120997  0.328193  0.540418  1
  O  O42  1  0.748851  0.454002  0.572393  1
  O  O43  1  0.748851  0.954002  0.927607  1
  O  O44  1  0.648062  0.489251  0.838103  1
  O  O45  1  0.879003  0.671807  0.459582  1
  O  O46  1  0.879003  0.171807  0.040418  1
  O  O47  1  0.620997  0.671807  0.959582  1
  O  O48  1  0.851938  0.489251  0.338103  1
  O  O49  1  0.728199  0.704113  0.151793  1
  O  O50  1  0.228199  0.295887  0.348207  1
  O  O51  1  0.148062  0.510749  0.661897  1
  O  O52  1  0.351938  0.510749  0.161897  1
  O  O53  1  0.385418  0.202281  0.702162  1
  O  O54  1  0.351938  0.010749  0.338103  1
  O  O55  1  0.385418  0.702281  0.797838  1
