# generated using pymatgen
data_MgVO2
_symmetry_space_group_name_H-M   'P 1'
_cell_length_a   2.92540972
_cell_length_b   8.07316816
_cell_length_c   8.00324464
_cell_angle_alpha   88.90963618
_cell_angle_beta   80.13897025
_cell_angle_gamma   100.46922028
_symmetry_Int_Tables_number   1
_chemical_formula_structural   MgVO2
_chemical_formula_sum   'Mg4 V4 O8'
_cell_volume   182.87712554
_cell_formula_units_Z   4
loop_
 _symmetry_equiv_pos_site_id
 _symmetry_equiv_pos_as_xyz
  1  'x, y, z'
loop_
 _atom_site_type_symbol
 _atom_site_label
 _atom_site_symmetry_multiplicity
 _atom_site_fract_x
 _atom_site_fract_y
 _atom_site_fract_z
 _atom_site_occupancy
  Mg  Mg0  1  0.347726  0.024483  0.326572  1
  Mg  Mg1  1  0.649231  0.955462  0.701555  1
  Mg  Mg2  1  0.306125  0.738516  0.109989  1
  Mg  Mg3  1  0.690118  0.241296  0.918212  1
  V  V4  1  0.364186  0.301177  0.600262  1
  V  V5  1  0.049475  0.369064  0.272232  1
  V  V6  1  0.945729  0.610885  0.756013  1
  V  V7  1  0.632531  0.678776  0.427953  1
  O  O8  1  0.141624  0.817195  0.559763  1
  O  O9  1  0.317231  0.424907  0.825564  1
  O  O10  1  0.676904  0.555038  0.202716  1
  O  O11  1  0.854898  0.162653  0.468470  1
  O  O12  1  0.180174  0.104152  0.795481  1
  O  O13  1  0.529347  0.230209  0.164877  1
  O  O14  1  0.816863  0.875774  0.232680  1
  O  O15  1  0.466115  0.749746  0.863278  1
