# generated using pymatgen
data_MgCr2O4
_symmetry_space_group_name_H-M   'P 1'
_cell_length_a   5.98481726
_cell_length_b   5.98476532
_cell_length_c   17.99076983
_cell_angle_alpha   60.05815994
_cell_angle_beta   60.06081101
_cell_angle_gamma   59.99737260
_symmetry_Int_Tables_number   1
_chemical_formula_structural   MgCr2O4
_chemical_formula_sum   'Mg6 Cr12 O24'
_cell_volume   456.05164623
_cell_formula_units_Z   6
loop_
 _symmetry_equiv_pos_site_id
 _symmetry_equiv_pos_as_xyz
  1  'x, y, z'
loop_
 _atom_site_type_symbol
 _atom_site_label
 _atom_site_symmetry_multiplicity
 _atom_site_fract_x
 _atom_site_fract_y
 _atom_site_fract_z
 _atom_site_occupancy
  Mg  Mg0  1  0.120025  0.120017  0.046628  1
  Mg  Mg1  1  0.124889  0.124888  0.375115  1
  Mg  Mg2  1  0.495707  0.495693  0.004289  1
  Mg  Mg3  1  0.125311  0.125315  0.708030  1
  Mg  Mg4  1  0.877008  0.877001  0.289656  1
  Mg  Mg5  1  0.875455  0.875459  0.624548  1
  Cr  Cr6  1  0.002021  0.498498  0.167005  1
  Cr  Cr7  1  0.498452  0.498463  0.167002  1
  Cr  Cr8  1  0.000806  0.500463  0.499429  1
  Cr  Cr9  1  0.498486  0.002018  0.167002  1
  Cr  Cr10  1  0.500557  0.500524  0.332789  1
  Cr  Cr11  1  0.500460  0.500477  0.499431  1
  Cr  Cr12  1  0.003052  0.499647  0.832535  1
  Cr  Cr13  1  0.500451  0.000797  0.499435  1
  Cr  Cr14  1  0.499657  0.003054  0.832528  1
  Cr  Cr15  1  0.501154  0.501152  0.665521  1
  Cr  Cr16  1  0.499631  0.499640  0.832551  1
  Cr  Cr17  1  0.877302  0.877250  0.956015  1
  O  O18  1  0.255111  0.255129  0.090239  1
  O  O19  1  0.260140  0.260149  0.239859  1
  O  O20  1  0.255149  0.719008  0.090238  1
  O  O21  1  0.719013  0.255151  0.090239  1
  O  O22  1  0.283993  0.737788  0.246802  1
  O  O23  1  0.260486  0.260490  0.420690  1
  O  O24  1  0.737800  0.283991  0.246798  1
  O  O25  1  0.741348  0.741490  0.092020  1
  O  O26  1  0.260511  0.716946  0.420681  1
  O  O27  1  0.260800  0.260794  0.572544  1
  O  O28  1  0.737804  0.737795  0.246805  1
  O  O29  1  0.716955  0.260498  0.420684  1
  O  O30  1  0.282809  0.738873  0.579821  1
  O  O31  1  0.261695  0.261695  0.753370  1
  O  O32  1  0.738873  0.282814  0.579823  1
  O  O33  1  0.739464  0.739468  0.427207  1
  O  O34  1  0.260844  0.260839  0.905822  1
  O  O35  1  0.261677  0.716511  0.753375  1
  O  O36  1  0.738883  0.738885  0.579819  1
  O  O37  1  0.716510  0.261678  0.753376  1
  O  O38  1  0.272775  0.749231  0.909556  1
  O  O39  1  0.738347  0.738336  0.761647  1
  O  O40  1  0.749201  0.272738  0.909602  1
  O  O41  1  0.749386  0.749347  0.909473  1
