# generated using pymatgen
data_Mg2CrWO6
_symmetry_space_group_name_H-M   'P 1'
_cell_length_a   5.54164561
_cell_length_b   5.55211659
_cell_length_c   7.54670417
_cell_angle_alpha   84.52568932
_cell_angle_beta   136.90802059
_cell_angle_gamma   124.29161010
_symmetry_Int_Tables_number   1
_chemical_formula_structural   Mg2CrWO6
_chemical_formula_sum   'Mg2 Cr1 W1 O6'
_cell_volume   108.58671158
_cell_formula_units_Z   1
loop_
 _symmetry_equiv_pos_site_id
 _symmetry_equiv_pos_as_xyz
  1  'x, y, z'
loop_
 _atom_site_type_symbol
 _atom_site_label
 _atom_site_symmetry_multiplicity
 _atom_site_fract_x
 _atom_site_fract_y
 _atom_site_fract_z
 _atom_site_occupancy
  Mg  Mg0  1  0.993705  0.562325  0.287553  1
  Mg  Mg1  1  0.999928  0.563178  0.790906  1
  Cr  Cr2  1  0.999278  0.978157  0.495536  1
  W  W3  1  0.998436  0.975738  0.994619  1
  O  O4  1  0.260270  0.080862  0.370258  1
  O  O5  1  0.728173  0.810238  0.612518  1
  O  O6  1  0.392304  0.472431  0.110679  1
  O  O7  1  0.335518  0.809790  0.716677  1
  O  O8  1  0.603027  0.082208  0.212704  1
  O  O9  1  0.664357  0.475008  0.877466  1
