# generated using pymatgen
data_MgCu3(SbO3)4
_symmetry_space_group_name_H-M   'P 1'
_cell_length_a   6.76275714
_cell_length_b   6.76270929
_cell_length_c   6.76333914
_cell_angle_alpha   109.33462999
_cell_angle_beta   109.42416205
_cell_angle_gamma   109.67345005
_symmetry_Int_Tables_number   1
_chemical_formula_structural   MgCu3(SbO3)4
_chemical_formula_sum   'Mg1 Cu3 Sb4 O12'
_cell_volume   238.05707812
_cell_formula_units_Z   1
loop_
 _symmetry_equiv_pos_site_id
 _symmetry_equiv_pos_as_xyz
  1  'x, y, z'
loop_
 _atom_site_type_symbol
 _atom_site_label
 _atom_site_symmetry_multiplicity
 _atom_site_fract_x
 _atom_site_fract_y
 _atom_site_fract_z
 _atom_site_occupancy
  Mg  Mg0  1  0.000004  0.000005  0.000001  1
  Cu  Cu1  1  0.499999  0.499997  0.999999  1
  Cu  Cu2  1  0.999998  0.499996  0.499998  1
  Cu  Cu3  1  0.500003  0.000006  0.500003  1
  Sb  Sb4  1  0.999999  0.999998  0.500000  1
  Sb  Sb5  1  1.000000  0.500003  0.000002  1
  Sb  Sb6  1  0.499999  0.500003  0.500001  1
  Sb  Sb7  1  0.500000  0.999999  0.000001  1
  O  O8  1  0.828367  0.298470  0.126806  1
  O  O9  1  0.171632  0.701527  0.873192  1
  O  O10  1  0.828306  0.701523  0.529948  1
  O  O11  1  0.297727  0.470082  0.172456  1
  O  O12  1  0.469842  0.172437  0.297504  1
  O  O13  1  0.125043  0.827596  0.297477  1
  O  O14  1  0.702278  0.874707  0.172387  1
  O  O15  1  0.530158  0.827567  0.702496  1
  O  O16  1  0.171693  0.298474  0.470050  1
  O  O17  1  0.702272  0.529919  0.827544  1
  O  O18  1  0.874962  0.172407  0.702527  1
  O  O19  1  0.297721  0.125287  0.827609  1
