# generated using pymatgen
data_MgMo2P2O9
_symmetry_space_group_name_H-M   'P 1'
_cell_length_a   6.65639172
_cell_length_b   7.22830119
_cell_length_c   14.91539174
_cell_angle_alpha   90.00000000
_cell_angle_beta   90.00000000
_cell_angle_gamma   90.00000000
_symmetry_Int_Tables_number   1
_chemical_formula_structural   MgMo2P2O9
_chemical_formula_sum   'Mg4 Mo8 P8 O36'
_cell_volume   717.64518684
_cell_formula_units_Z   4
loop_
 _symmetry_equiv_pos_site_id
 _symmetry_equiv_pos_as_xyz
  1  'x, y, z'
loop_
 _atom_site_type_symbol
 _atom_site_label
 _atom_site_symmetry_multiplicity
 _atom_site_fract_x
 _atom_site_fract_y
 _atom_site_fract_z
 _atom_site_occupancy
  Mg  Mg0  1  0.750000  0.928274  0.770640  1
  Mg  Mg1  1  0.750000  0.571726  0.270640  1
  Mg  Mg2  1  0.250001  0.428273  0.729360  1
  Mg  Mg3  1  0.250001  0.071726  0.229360  1
  Mo  Mo4  1  0.750000  0.371177  0.875895  1
  Mo  Mo5  1  0.250001  0.628823  0.124105  1
  Mo  Mo6  1  0.250001  0.871177  0.624105  1
  Mo  Mo7  1  0.750000  0.128823  0.375895  1
  Mo  Mo8  1  0.500000  -0.000000  -0.000000  1
  Mo  Mo9  1  0.500000  0.500000  0.500000  1
  Mo  Mo10  1  -0.000000  0.500000  0.500000  1
  Mo  Mo11  1  -0.000000  -0.000000  -0.000000  1
  P  P12  1  0.250001  0.378456  0.920931  1
  P  P13  1  0.750000  0.621544  0.079070  1
  P  P14  1  0.750000  0.878456  0.579069  1
  P  P15  1  0.250001  0.121545  0.420931  1
  P  P16  1  0.750000  0.397534  0.691612  1
  P  P17  1  0.750000  0.102466  0.191612  1
  P  P18  1  0.250001  0.897534  0.808388  1
  P  P19  1  0.250001  0.602465  0.308388  1
  O  O20  1  0.050667  0.603787  0.363265  1
  O  O21  1  0.550666  0.396212  0.636735  1
  O  O22  1  0.949333  0.103787  0.136735  1
  O  O23  1  0.449333  0.896213  0.863265  1
  O  O24  1  0.949333  0.396212  0.636735  1
  O  O25  1  0.449333  0.603787  0.363265  1
  O  O26  1  0.050667  0.896213  0.863265  1
  O  O27  1  0.550666  0.103787  0.136735  1
  O  O28  1  0.250001  0.313530  0.470597  1
  O  O29  1  0.750000  0.686471  0.529403  1
  O  O30  1  0.750000  0.813529  0.029402  1
  O  O31  1  0.250001  0.186471  0.970597  1
  O  O32  1  0.750000  0.114326  0.934771  1
  O  O33  1  0.250001  0.885674  0.065228  1
  O  O34  1  0.250001  0.614326  0.565228  1
  O  O35  1  0.750000  0.385675  0.434772  1
  O  O36  1  0.750000  0.218078  0.751547  1
  O  O37  1  0.250001  0.781922  0.248454  1
  O  O38  1  0.250001  0.718078  0.748453  1
  O  O39  1  0.750000  0.281923  0.251546  1
  O  O40  1  0.429325  0.112370  0.354569  1
  O  O41  1  0.929325  0.887630  0.645431  1
  O  O42  1  0.570675  0.612369  0.145431  1
  O  O43  1  0.070675  0.387630  0.854569  1
  O  O44  1  0.570675  0.887630  0.645431  1
  O  O45  1  0.070675  0.112370  0.354569  1
  O  O46  1  0.429325  0.387630  0.854569  1
  O  O47  1  0.929325  0.612369  0.145431  1
  O  O48  1  0.750000  0.470226  0.009769  1
  O  O49  1  0.250001  0.063583  0.740963  1
  O  O50  1  0.250001  0.436416  0.240963  1
  O  O51  1  0.750000  0.563583  0.759037  1
  O  O52  1  0.750000  0.029774  0.509769  1
  O  O53  1  0.250001  0.970226  0.490231  1
  O  O54  1  0.250001  0.529773  0.990230  1
  O  O55  1  0.750000  0.936417  0.259037  1
