# generated using pymatgen
data_Mg(BiO2)2
_symmetry_space_group_name_H-M   'P 1'
_cell_length_a   3.27529844
_cell_length_b   5.86871334
_cell_length_c   11.18433192
_cell_angle_alpha   90.00000000
_cell_angle_beta   90.00000000
_cell_angle_gamma   106.20336419
_symmetry_Int_Tables_number   1
_chemical_formula_structural   Mg(BiO2)2
_chemical_formula_sum   'Mg2 Bi4 O8'
_cell_volume   206.44315447
_cell_formula_units_Z   2
loop_
 _symmetry_equiv_pos_site_id
 _symmetry_equiv_pos_as_xyz
  1  'x, y, z'
loop_
 _atom_site_type_symbol
 _atom_site_label
 _atom_site_symmetry_multiplicity
 _atom_site_fract_x
 _atom_site_fract_y
 _atom_site_fract_z
 _atom_site_occupancy
  Mg  Mg0  1  0.388850  0.777700  0.750000  1
  Mg  Mg1  1  0.611150  0.222300  0.250000  1
  Bi  Bi2  1  0.867990  0.735981  0.080057  1
  Bi  Bi3  1  0.132010  0.264019  0.919943  1
  Bi  Bi4  1  0.867990  0.735981  0.419943  1
  Bi  Bi5  1  0.132010  0.264019  0.580057  1
  O  O6  1  0.216540  0.433080  0.375854  1
  O  O7  1  0.783460  0.566920  0.624146  1
  O  O8  1  0.783460  0.566920  0.875854  1
  O  O9  1  0.216540  0.433080  0.124146  1
  O  O10  1  0.992260  0.984520  0.250000  1
  O  O11  1  0.007740  0.015480  0.750000  1
  O  O12  1  0.500000  0.000000  0.000000  1
  O  O13  1  0.500000  0.000000  0.500000  1
