# generated using pymatgen
data_Nb2WO8
_symmetry_space_group_name_H-M   'P 1'
_cell_length_a   5.16482076
_cell_length_b   6.22868840
_cell_length_c   10.57497691
_cell_angle_alpha   106.96079780
_cell_angle_beta   89.02783386
_cell_angle_gamma   90.00013557
_symmetry_Int_Tables_number   1
_chemical_formula_structural   Nb2WO8
_chemical_formula_sum   'Nb4 W2 O16'
_cell_volume   325.34939973
_cell_formula_units_Z   2
loop_
 _symmetry_equiv_pos_site_id
 _symmetry_equiv_pos_as_xyz
  1  'x, y, z'
loop_
 _atom_site_type_symbol
 _atom_site_label
 _atom_site_symmetry_multiplicity
 _atom_site_fract_x
 _atom_site_fract_y
 _atom_site_fract_z
 _atom_site_occupancy
  Nb  Nb0  1  0.760590  0.310527  0.262963  1
  Nb  Nb1  1  0.740202  0.049198  0.735449  1
  Nb  Nb2  1  0.240203  0.690574  0.735325  1
  Nb  Nb3  1  0.260489  0.951873  0.262999  1
  W  W4  1  0.750441  0.656084  0.999149  1
  W  W5  1  0.250447  0.344710  0.999226  1
  O  O6  1  0.085164  0.218534  0.113268  1
  O  O7  1  0.415751  0.105648  0.885151  1
  O  O8  1  0.915758  0.782173  0.885081  1
  O  O9  1  0.585223  0.895085  0.113292  1
  O  O10  1  0.568197  0.442611  0.101615  1
  O  O11  1  0.932682  0.341157  0.896789  1
  O  O12  1  0.432721  0.558140  0.896741  1
  O  O13  1  0.068230  0.659594  0.101611  1
  O  O14  1  0.429186  0.243365  0.321890  1
  O  O15  1  0.071647  0.923743  0.676401  1
  O  O16  1  0.360091  0.810897  0.372379  1
  O  O17  1  0.140491  0.441217  0.625975  1
  O  O18  1  0.640500  0.190536  0.626256  1
  O  O19  1  0.859886  0.560285  0.372059  1
  O  O20  1  0.929264  0.077670  0.322152  1
  O  O21  1  0.571648  0.757679  0.676359  1
