# generated using pymatgen
data_FeNiP2O9
_symmetry_space_group_name_H-M   'P 1'
_cell_length_a   6.31723851
_cell_length_b   7.73982409
_cell_length_c   14.09115540
_cell_angle_alpha   90.06207921
_cell_angle_beta   90.00293917
_cell_angle_gamma   89.96628637
_symmetry_Int_Tables_number   1
_chemical_formula_structural   FeNiP2O9
_chemical_formula_sum   'Fe4 Ni4 P8 O36'
_cell_volume   688.97686394
_cell_formula_units_Z   4
loop_
 _symmetry_equiv_pos_site_id
 _symmetry_equiv_pos_as_xyz
  1  'x, y, z'
loop_
 _atom_site_type_symbol
 _atom_site_label
 _atom_site_symmetry_multiplicity
 _atom_site_fract_x
 _atom_site_fract_y
 _atom_site_fract_z
 _atom_site_occupancy
  Fe  Fe0  1  0.750112  0.345533  0.880952  1
  Fe  Fe1  1  0.249830  0.654603  0.119203  1
  Fe  Fe2  1  0.250137  0.845622  0.619014  1
  Fe  Fe3  1  0.749799  0.154244  0.380521  1
  Ni  Ni4  1  0.500031  0.000038  0.000107  1
  Ni  Ni5  1  0.499875  0.499835  0.499884  1
  Ni  Ni6  1  0.000143  0.499922  0.499952  1
  Ni  Ni7  1  0.999961  0.000028  0.000113  1
  P  P8  1  0.250150  0.349428  0.938451  1
  P  P9  1  0.749816  0.650482  0.061568  1
  P  P10  1  0.750182  0.849684  0.561387  1
  P  P11  1  0.249765  0.150041  0.438527  1
  P  P12  1  0.750253  0.390274  0.687735  1
  P  P13  1  0.249830  0.609761  0.312314  1
  P  P14  1  0.250208  0.890472  0.812191  1
  P  P15  1  0.749853  0.109747  0.187549  1
  O  O16  1  0.046263  0.597940  0.372019  1
  O  O17  1  0.546452  0.402049  0.627890  1
  O  O18  1  0.953672  0.098127  0.127959  1
  O  O19  1  0.453990  0.901845  0.872135  1
  O  O20  1  0.954102  0.402061  0.627972  1
  O  O21  1  0.453415  0.597980  0.372029  1
  O  O22  1  0.046369  0.901857  0.872100  1
  O  O23  1  0.546089  0.098177  0.127901  1
  O  O24  1  0.249941  0.338358  0.479750  1
  O  O25  1  0.750052  0.661453  0.520029  1
  O  O26  1  0.749916  0.838697  0.020367  1
  O  O27  1  0.250070  0.161422  0.979942  1
  O  O28  1  0.750174  0.140649  0.953528  1
  O  O29  1  0.249808  0.859490  0.046670  1
  O  O30  1  0.250247  0.641009  0.546497  1
  O  O31  1  0.749773  0.359018  0.453453  1
  O  O32  1  0.750380  0.222872  0.748622  1
  O  O33  1  0.249646  0.777290  0.251366  1
  O  O34  1  0.250593  0.722680  0.751554  1
  O  O35  1  0.749486  0.277468  0.248490  1
  O  O36  1  0.443816  0.134194  0.373230  1
  O  O37  1  0.943940  0.865200  0.626962  1
  O  O38  1  0.555751  0.635134  0.126899  1
  O  O39  1  0.055992  0.364751  0.873157  1
  O  O40  1  0.556279  0.865502  0.626847  1
  O  O41  1  0.055823  0.134598  0.373132  1
  O  O42  1  0.444160  0.364590  0.873085  1
  O  O43  1  0.944005  0.634941  0.126849  1
  O  O44  1  0.749997  0.970730  0.268065  1
  O  O45  1  0.249892  0.030325  0.732231  1
  O  O46  1  0.249985  0.470705  0.231724  1
  O  O47  1  0.750016  0.529271  0.768339  1
  O  O48  1  0.750360  0.981901  0.482280  1
  O  O49  1  0.249595  0.017765  0.517543  1
  O  O50  1  0.250217  0.482239  0.017374  1
  O  O51  1  0.749786  0.517994  0.982542  1
