# generated using pymatgen
data_V(Si2O5)2
_symmetry_space_group_name_H-M   'P 1'
_cell_length_a   7.39946467
_cell_length_b   7.39946467
_cell_length_c   15.67515776
_cell_angle_alpha   90.00000000
_cell_angle_beta   90.00000000
_cell_angle_gamma   90.00000000
_symmetry_Int_Tables_number   1
_chemical_formula_structural   V(Si2O5)2
_chemical_formula_sum   'V4 Si16 O40'
_cell_volume   858.24745097
_cell_formula_units_Z   4
loop_
 _symmetry_equiv_pos_site_id
 _symmetry_equiv_pos_as_xyz
  1  'x, y, z'
loop_
 _atom_site_type_symbol
 _atom_site_label
 _atom_site_symmetry_multiplicity
 _atom_site_fract_x
 _atom_site_fract_y
 _atom_site_fract_z
 _atom_site_occupancy
  V  V0  1  0.250000  0.250000  0.575412  1
  V  V1  1  0.750000  0.750000  0.924588  1
  V  V2  1  0.750000  0.750000  0.424588  1
  V  V3  1  0.250000  0.250000  0.075412  1
  Si  Si4  1  0.922940  0.505008  0.649964  1
  Si  Si5  1  0.577060  0.994992  0.649964  1
  Si  Si6  1  0.005008  0.422940  0.850036  1
  Si  Si7  1  0.505008  0.577060  0.649964  1
  Si  Si8  1  0.994992  0.922940  0.649964  1
  Si  Si9  1  0.077060  0.005008  0.850036  1
  Si  Si10  1  0.422940  0.494992  0.850036  1
  Si  Si11  1  0.494992  0.077060  0.850036  1
  Si  Si12  1  0.077060  0.494992  0.350036  1
  Si  Si13  1  0.422940  0.005008  0.350036  1
  Si  Si14  1  0.994992  0.577060  0.149964  1
  Si  Si15  1  0.494992  0.422940  0.350036  1
  Si  Si16  1  0.005008  0.077060  0.350036  1
  Si  Si17  1  0.922940  0.994992  0.149964  1
  Si  Si18  1  0.577060  0.505008  0.149964  1
  Si  Si19  1  0.505008  0.922940  0.149964  1
  O  O20  1  0.027290  0.357069  0.591544  1
  O  O21  1  0.472710  0.142931  0.591544  1
  O  O22  1  0.857069  0.527290  0.908456  1
  O  O23  1  0.357069  0.472710  0.591544  1
  O  O24  1  0.142931  0.027290  0.591544  1
  O  O25  1  0.972710  0.857069  0.908456  1
  O  O26  1  0.527290  0.642931  0.908456  1
  O  O27  1  0.642931  0.972710  0.908456  1
  O  O28  1  0.972710  0.642931  0.408456  1
  O  O29  1  0.527290  0.857069  0.408456  1
  O  O30  1  0.142931  0.472710  0.091544  1
  O  O31  1  0.642931  0.527290  0.408456  1
  O  O32  1  0.857069  0.972710  0.408456  1
  O  O33  1  0.027290  0.142931  0.091544  1
  O  O34  1  0.472710  0.357069  0.091544  1
  O  O35  1  0.001417  0.292511  0.371576  1
  O  O36  1  0.357069  0.027290  0.091544  1
  O  O37  1  0.501417  0.792511  0.628424  1
  O  O38  1  0.207489  0.498583  0.871576  1
  O  O39  1  0.707489  0.501417  0.628424  1
  O  O40  1  0.792511  0.998583  0.628424  1
  O  O41  1  0.001417  0.207489  0.871576  1
  O  O42  1  0.498583  0.292511  0.871576  1
  O  O43  1  0.292511  0.001417  0.871576  1
  O  O44  1  0.456521  0.956520  0.250000  1
  O  O45  1  0.543479  0.456521  0.250000  1
  O  O46  1  0.956520  0.043479  0.250000  1
  O  O47  1  0.043479  0.543479  0.250000  1
  O  O48  1  0.543479  0.043479  0.750000  1
  O  O49  1  0.456521  0.543479  0.750000  1
  O  O50  1  0.043479  0.956520  0.750000  1
  O  O51  1  0.956520  0.456521  0.750000  1
  O  O52  1  0.707489  0.998583  0.128424  1
  O  O53  1  0.501417  0.707489  0.128424  1
  O  O54  1  0.998583  0.792511  0.128424  1
  O  O55  1  0.207489  0.001417  0.371576  1
  O  O56  1  0.292511  0.498583  0.371576  1
  O  O57  1  0.792511  0.501417  0.128424  1
  O  O58  1  0.498583  0.207489  0.371576  1
  O  O59  1  0.998583  0.707489  0.628424  1
