# generated using pymatgen
data_MgMn2O4
_symmetry_space_group_name_H-M   'P 1'
_cell_length_a   6.19077806
_cell_length_b   6.18233086
_cell_length_c   17.75509625
_cell_angle_alpha   61.05259061
_cell_angle_beta   60.89784231
_cell_angle_gamma   57.04822268
_symmetry_Int_Tables_number   1
_chemical_formula_structural   MgMn2O4
_chemical_formula_sum   'Mg6 Mn12 O24'
_cell_volume   475.39753575
_cell_formula_units_Z   6
loop_
 _symmetry_equiv_pos_site_id
 _symmetry_equiv_pos_as_xyz
  1  'x, y, z'
loop_
 _atom_site_type_symbol
 _atom_site_label
 _atom_site_symmetry_multiplicity
 _atom_site_fract_x
 _atom_site_fract_y
 _atom_site_fract_z
 _atom_site_occupancy
  Mg  Mg0  1  0.115868  0.113486  0.047397  1
  Mg  Mg1  1  0.125701  0.123429  0.380830  1
  Mg  Mg2  1  0.504919  0.503653  0.334975  1
  Mg  Mg3  1  0.120246  0.120431  0.709545  1
  Mg  Mg4  1  0.493597  0.494558  0.000771  1
  Mg  Mg5  1  0.878922  0.879069  0.622773  1
  Mn  Mn6  1  0.499827  0.500235  0.166282  1
  Mn  Mn7  1  0.499211  0.001179  0.166852  1
  Mn  Mn8  1  0.503767  0.503479  0.499707  1
  Mn  Mn9  1  0.001518  0.498688  0.166747  1
  Mn  Mn10  1  0.507599  0.008779  0.498465  1
  Mn  Mn11  1  0.499605  0.500015  0.665964  1
  Mn  Mn12  1  0.882016  0.884075  0.287172  1
  Mn  Mn13  1  0.497095  0.497606  0.831955  1
  Mn  Mn14  1  0.008794  0.507157  0.498636  1
  Mn  Mn15  1  0.491541  0.993448  0.834704  1
  Mn  Mn16  1  0.993062  0.491916  0.834588  1
  Mn  Mn17  1  0.875773  0.877504  0.952923  1
  O  O18  1  0.255955  0.257632  0.090228  1
  O  O19  1  0.257346  0.243938  0.243152  1
  O  O20  1  0.252036  0.710155  0.093910  1
  O  O21  1  0.706686  0.239574  0.095564  1
  O  O22  1  0.267939  0.268253  0.419516  1
  O  O23  1  0.298930  0.761630  0.236644  1
  O  O24  1  0.252960  0.252859  0.574491  1
  O  O25  1  0.748603  0.295719  0.238237  1
  O  O26  1  0.744134  0.758062  0.091058  1
  O  O27  1  0.270169  0.726563  0.423365  1
  O  O28  1  0.728003  0.269584  0.422894  1
  O  O29  1  0.742951  0.740333  0.242249  1
  O  O30  1  0.250992  0.251055  0.757730  1
  O  O31  1  0.283022  0.730969  0.582133  1
  O  O32  1  0.730988  0.283169  0.581927  1
  O  O33  1  0.242734  0.243430  0.910196  1
  O  O34  1  0.753750  0.752472  0.425701  1
  O  O35  1  0.263507  0.714219  0.752518  1
  O  O36  1  0.714609  0.265662  0.751827  1
  O  O37  1  0.745585  0.746646  0.576866  1
  O  O38  1  0.279263  0.730654  0.909362  1
  O  O39  1  0.732505  0.280722  0.908422  1
  O  O40  1  0.746620  0.747277  0.758961  1
  O  O41  1  0.731657  0.730715  0.912764  1
