# generated using pymatgen
data_Ni2O3
_symmetry_space_group_name_H-M   'P 1'
_cell_length_a   2.90275806
_cell_length_b   5.06564996
_cell_length_c   14.57660918
_cell_angle_alpha   90.00000000
_cell_angle_beta   90.00000000
_cell_angle_gamma   106.64936181
_symmetry_Int_Tables_number   1
_chemical_formula_structural   Ni2O3
_chemical_formula_sum   'Ni8 O12'
_cell_volume   205.35369806
_cell_formula_units_Z   4
loop_
 _symmetry_equiv_pos_site_id
 _symmetry_equiv_pos_as_xyz
  1  'x, y, z'
loop_
 _atom_site_type_symbol
 _atom_site_label
 _atom_site_symmetry_multiplicity
 _atom_site_fract_x
 _atom_site_fract_y
 _atom_site_fract_z
 _atom_site_occupancy
  Ni  Ni0  1  0.863355  0.726712  0.046747  1
  Ni  Ni1  1  0.136643  0.273287  0.953253  1
  Ni  Ni2  1  0.863355  0.726712  0.453253  1
  Ni  Ni3  1  0.136643  0.273287  0.546747  1
  Ni  Ni4  1  0.406022  0.812043  0.635374  1
  Ni  Ni5  1  0.593978  0.187957  0.364627  1
  Ni  Ni6  1  0.593978  0.187957  0.135373  1
  Ni  Ni7  1  0.406022  0.812043  0.864626  1
  O  O8  1  0.499999  0.000000  0.500000  1
  O  O9  1  0.499999  0.000000  0.000000  1
  O  O10  1  0.031746  0.063493  0.843384  1
  O  O11  1  0.968254  0.936507  0.156617  1
  O  O12  1  0.968254  0.936507  0.343383  1
  O  O13  1  0.031746  0.063493  0.656617  1
  O  O14  1  0.780269  0.560540  0.922618  1
  O  O15  1  0.219730  0.439461  0.077382  1
  O  O16  1  0.219730  0.439461  0.422618  1
  O  O17  1  0.780269  0.560540  0.577382  1
  O  O18  1  0.325288  0.650576  0.750000  1
  O  O19  1  0.674710  0.349423  0.250000  1
