# generated using pymatgen
data_Mg(SbO2)4
_symmetry_space_group_name_H-M   'P 1'
_cell_length_a   6.37370053
_cell_length_b   6.37370125
_cell_length_c   6.37370127
_cell_angle_alpha   65.37876221
_cell_angle_beta   65.37873418
_cell_angle_gamma   65.37875674
_symmetry_Int_Tables_number   1
_chemical_formula_structural   Mg(SbO2)4
_chemical_formula_sum   'Mg1 Sb4 O8'
_cell_volume   204.52071031
_cell_formula_units_Z   1
loop_
 _symmetry_equiv_pos_site_id
 _symmetry_equiv_pos_as_xyz
  1  'x, y, z'
loop_
 _atom_site_type_symbol
 _atom_site_label
 _atom_site_symmetry_multiplicity
 _atom_site_fract_x
 _atom_site_fract_y
 _atom_site_fract_z
 _atom_site_occupancy
  Mg  Mg0  1  0.500000  0.500001  0.499999  1
  Sb  Sb1  1  0.500001  0.999999  0.500001  1
  Sb  Sb2  1  0.999999  0.500000  0.500001  1
  Sb  Sb3  1  0.500000  0.500000  -0.000000  1
  Sb  Sb4  1  0.000000  -0.000000  -0.000000  1
  O  O5  1  0.740769  0.286820  0.740769  1
  O  O6  1  0.259230  0.259231  0.713180  1
  O  O7  1  0.259230  0.713181  0.259230  1
  O  O8  1  0.713178  0.259231  0.259231  1
  O  O9  1  0.267536  0.267537  0.267536  1
  O  O10  1  0.732464  0.732464  0.732464  1
  O  O11  1  0.286821  0.740770  0.740769  1
  O  O12  1  0.740770  0.740770  0.286820  1
