# generated using pymatgen
data_Cu3(SbO3)4
_symmetry_space_group_name_H-M   'P 1'
_cell_length_a   6.66780572
_cell_length_b   6.66759600
_cell_length_c   6.66822925
_cell_angle_alpha   109.52024836
_cell_angle_beta   109.45248573
_cell_angle_gamma   109.44204342
_symmetry_Int_Tables_number   1
_chemical_formula_structural   Cu3(SbO3)4
_chemical_formula_sum   'Cu3 Sb4 O12'
_cell_volume   228.21000877
_cell_formula_units_Z   1
loop_
 _symmetry_equiv_pos_site_id
 _symmetry_equiv_pos_as_xyz
  1  'x, y, z'
loop_
 _atom_site_type_symbol
 _atom_site_label
 _atom_site_symmetry_multiplicity
 _atom_site_fract_x
 _atom_site_fract_y
 _atom_site_fract_z
 _atom_site_occupancy
  Cu  Cu0  1  0.499999  0.500000  -0.000001  1
  Cu  Cu1  1  0.000001  0.500001  0.499999  1
  Cu  Cu2  1  0.499999  0.000002  0.500003  1
  Sb  Sb3  1  -0.000001  -0.000000  0.499999  1
  Sb  Sb4  1  0.000001  0.500002  0.000002  1
  Sb  Sb5  1  0.500000  0.500001  0.500001  1
  Sb  Sb6  1  0.500000  -0.000002  -0.000003  1
  O  O7  1  0.814859  0.314200  0.129028  1
  O  O8  1  0.185141  0.685800  0.870973  1
  O  O9  1  0.814870  0.685827  0.500696  1
  O  O10  1  0.314049  0.498717  0.184706  1
  O  O11  1  0.499005  0.184757  0.314226  1
  O  O12  1  0.129474  0.815248  0.314231  1
  O  O13  1  0.685991  0.870641  0.184676  1
  O  O14  1  0.500995  0.815241  0.685773  1
  O  O15  1  0.185130  0.314173  0.499303  1
  O  O16  1  0.685952  0.501281  0.815294  1
  O  O17  1  0.870525  0.184754  0.685771  1
  O  O18  1  0.314008  0.129361  0.815324  1
