# generated using pymatgen
data_MgP2(WO5)2
_symmetry_space_group_name_H-M   'P 1'
_cell_length_a   7.19769730
_cell_length_b   7.19769686
_cell_length_c   8.70356327
_cell_angle_alpha   103.25707653
_cell_angle_beta   103.25707772
_cell_angle_gamma   116.44919994
_symmetry_Int_Tables_number   1
_chemical_formula_structural   MgP2(WO5)2
_chemical_formula_sum   'Mg2 P4 W4 O20'
_cell_volume   363.41683495
_cell_formula_units_Z   2
loop_
 _symmetry_equiv_pos_site_id
 _symmetry_equiv_pos_as_xyz
  1  'x, y, z'
loop_
 _atom_site_type_symbol
 _atom_site_label
 _atom_site_symmetry_multiplicity
 _atom_site_fract_x
 _atom_site_fract_y
 _atom_site_fract_z
 _atom_site_occupancy
  Mg  Mg0  1  0.500437  0.000437  0.500000  1
  Mg  Mg1  1  0.250437  0.250437  0.000000  1
  P  P2  1  0.043597  0.044696  0.599335  1
  P  P3  1  0.694263  0.195362  0.900665  1
  P  P4  1  0.445362  0.444263  0.400665  1
  P  P5  1  0.294696  0.793597  0.099335  1
  W  W6  1  0.871725  0.619612  0.251383  1
  W  W7  1  0.368230  0.620342  0.748617  1
  W  W8  1  0.870342  0.118230  0.248617  1
  W  W9  1  0.869612  0.621725  0.751383  1
  O  O10  1  0.559240  0.525926  0.279245  1
  O  O11  1  0.662060  0.664557  0.837922  1
  O  O12  1  0.307030  0.601449  0.983043  1
  O  O13  1  0.775926  0.309240  0.779245  1
  O  O14  1  0.211390  0.241961  0.275038  1
  O  O15  1  0.430114  0.634135  0.516168  1
  O  O16  1  0.074139  0.576636  0.662078  1
  O  O17  1  0.826636  0.824139  0.162078  1
  O  O18  1  0.914557  0.412060  0.337922  1
  O  O19  1  0.186351  0.716923  0.224962  1
  O  O20  1  0.246681  0.279997  0.720755  1
  O  O21  1  0.491961  0.961390  0.775038  1
  O  O22  1  0.966923  0.936351  0.724962  1
  O  O23  1  0.163947  0.867969  0.983832  1
  O  O24  1  0.117969  0.913947  0.483832  1
  O  O25  1  0.884135  0.180114  0.016168  1
  O  O26  1  0.851449  0.057030  0.483043  1
  O  O27  1  0.618406  0.323987  0.016957  1
  O  O28  1  0.529997  0.996681  0.220755  1
  O  O29  1  0.573987  0.368406  0.516957  1
