# generated using pymatgen
data_CrPO5
_symmetry_space_group_name_H-M   'P 1'
_cell_length_a   6.93724799
_cell_length_b   6.93724750
_cell_length_c   8.68198565
_cell_angle_alpha   101.43224838
_cell_angle_beta   101.43224912
_cell_angle_gamma   120.25714620
_symmetry_Int_Tables_number   1
_chemical_formula_structural   CrPO5
_chemical_formula_sum   'Cr4 P4 O20'
_cell_volume   331.09434455
_cell_formula_units_Z   4
loop_
 _symmetry_equiv_pos_site_id
 _symmetry_equiv_pos_as_xyz
  1  'x, y, z'
loop_
 _atom_site_type_symbol
 _atom_site_label
 _atom_site_symmetry_multiplicity
 _atom_site_fract_x
 _atom_site_fract_y
 _atom_site_fract_z
 _atom_site_occupancy
  Cr  Cr0  1  0.877667  0.597588  0.264652  1
  Cr  Cr1  1  0.332937  0.613014  0.735348  1
  Cr  Cr2  1  0.863014  0.082937  0.235348  1
  Cr  Cr3  1  0.847588  0.627667  0.764652  1
  P  P4  1  0.028707  0.031142  0.568181  1
  P  P5  1  0.710526  0.212961  0.931819  1
  P  P6  1  0.462961  0.460526  0.431819  1
  P  P7  1  0.281142  0.778707  0.068181  1
  O  O8  1  0.608912  0.564786  0.321385  1
  O  O9  1  0.667582  0.662637  0.841957  1
  O  O10  1  0.308759  0.598980  0.949763  1
  O  O11  1  0.814786  0.358912  0.821385  1
  O  O12  1  0.211215  0.248284  0.316511  1
  O  O13  1  0.435765  0.642898  0.547431  1
  O  O14  1  0.075624  0.570680  0.658043  1
  O  O15  1  0.820680  0.825624  0.158043  1
  O  O16  1  0.912637  0.417582  0.341957  1
  O  O17  1  0.144704  0.681773  0.183489  1
  O  O18  1  0.243401  0.287528  0.678615  1
  O  O19  1  0.498284  0.961215  0.816511  1
  O  O20  1  0.931773  0.894704  0.683489  1
  O  O21  1  0.138337  0.845468  0.952569  1
  O  O22  1  0.095468  0.888337  0.452569  1
  O  O23  1  0.892898  0.185765  0.047431  1
  O  O24  1  0.848980  0.058759  0.449763  1
  O  O25  1  0.649218  0.358995  0.050237  1
  O  O26  1  0.537528  0.993401  0.178615  1
  O  O27  1  0.608995  0.399218  0.550237  1
