# generated using pymatgen
data_SnO2
_symmetry_space_group_name_H-M   'P 1'
_cell_length_a   6.40180470
_cell_length_b   6.40384691
_cell_length_c   6.38644565
_cell_angle_alpha   60.06592779
_cell_angle_beta   60.10484463
_cell_angle_gamma   59.81694829
_symmetry_Int_Tables_number   1
_chemical_formula_structural   SnO2
_chemical_formula_sum   'Sn4 O8'
_cell_volume   185.11466825
_cell_formula_units_Z   4
loop_
 _symmetry_equiv_pos_site_id
 _symmetry_equiv_pos_as_xyz
  1  'x, y, z'
loop_
 _atom_site_type_symbol
 _atom_site_label
 _atom_site_symmetry_multiplicity
 _atom_site_fract_x
 _atom_site_fract_y
 _atom_site_fract_z
 _atom_site_occupancy
  Sn  Sn0  1  0.499946  -0.000004  0.500065  1
  Sn  Sn1  1  0.499949  0.499908  0.000002  1
  Sn  Sn2  1  -0.000002  0.500087  0.500049  1
  Sn  Sn3  1  0.500099  0.500008  0.499891  1
  O  O4  1  0.265482  0.267303  0.264424  1
  O  O5  1  0.702815  0.264310  0.265849  1
  O  O6  1  0.264436  0.702802  0.266906  1
  O  O7  1  0.267284  0.265628  0.702802  1
  O  O8  1  0.732759  0.734454  0.297219  1
  O  O9  1  0.735660  0.297227  0.732930  1
  O  O10  1  0.297223  0.735589  0.734106  1
  O  O11  1  0.734347  0.732687  0.735756  1
