# generated using pymatgen
data_MgVBiO5
_symmetry_space_group_name_H-M   'P 1'
_cell_length_a   5.27936572
_cell_length_b   10.71072594
_cell_length_c   15.60387015
_cell_angle_alpha   90.00000000
_cell_angle_beta   90.00000000
_cell_angle_gamma   90.00000000
_symmetry_Int_Tables_number   1
_chemical_formula_structural   MgVBiO5
_chemical_formula_sum   'Mg8 V8 Bi8 O40'
_cell_volume   882.33393496
_cell_formula_units_Z   8
loop_
 _symmetry_equiv_pos_site_id
 _symmetry_equiv_pos_as_xyz
  1  'x, y, z'
loop_
 _atom_site_type_symbol
 _atom_site_label
 _atom_site_symmetry_multiplicity
 _atom_site_fract_x
 _atom_site_fract_y
 _atom_site_fract_z
 _atom_site_occupancy
  Mg  Mg0  1  0.493824  0.362689  0.453595  1
  Mg  Mg1  1  0.993824  0.137311  0.453595  1
  Mg  Mg2  1  0.993824  0.637311  0.046405  1
  Mg  Mg3  1  0.006176  0.362689  0.953595  1
  Mg  Mg4  1  0.506176  0.137311  0.953595  1
  Mg  Mg5  1  0.006176  0.862689  0.546405  1
  Mg  Mg6  1  0.506176  0.637311  0.546405  1
  Mg  Mg7  1  0.493824  0.862689  0.046405  1
  V  V8  1  0.985350  0.398856  0.591894  1
  V  V9  1  0.514650  0.898856  0.408106  1
  V  V10  1  0.014650  0.601144  0.408106  1
  V  V11  1  0.485350  0.101144  0.591894  1
  V  V12  1  0.014650  0.101144  0.091894  1
  V  V13  1  0.985350  0.898856  0.908106  1
  V  V14  1  0.514650  0.398856  0.091894  1
  V  V15  1  0.485350  0.601144  0.908106  1
  Bi  Bi16  1  0.977936  0.853593  0.225904  1
  Bi  Bi17  1  0.022064  0.146407  0.774096  1
  Bi  Bi18  1  0.522064  0.353593  0.774096  1
  Bi  Bi19  1  0.022064  0.646407  0.725904  1
  Bi  Bi20  1  0.477936  0.146407  0.274096  1
  Bi  Bi21  1  0.477936  0.646407  0.225904  1
  Bi  Bi22  1  0.522064  0.853593  0.725904  1
  Bi  Bi23  1  0.977936  0.353593  0.274096  1
  O  O24  1  0.926773  0.328107  0.692975  1
  O  O25  1  0.303126  0.042225  0.056063  1
  O  O26  1  0.196874  0.542225  0.943937  1
  O  O27  1  0.294677  0.784165  0.148991  1
  O  O28  1  0.205323  0.284165  0.851009  1
  O  O29  1  0.926773  0.828107  0.807025  1
  O  O30  1  0.205323  0.784165  0.648991  1
  O  O31  1  0.573227  0.828107  0.307025  1
  O  O32  1  0.303126  0.542225  0.443937  1
  O  O33  1  0.073227  0.671893  0.307025  1
  O  O34  1  0.573227  0.328107  0.192975  1
  O  O35  1  0.637913  0.197816  0.520240  1
  O  O36  1  0.803126  0.957775  0.443937  1
  O  O37  1  0.705323  0.715835  0.648991  1
  O  O38  1  0.188240  0.024977  0.882442  1
  O  O39  1  0.803126  0.457775  0.056063  1
  O  O40  1  0.073227  0.171893  0.192975  1
  O  O41  1  0.794677  0.215835  0.351009  1
  O  O42  1  0.137913  0.802184  0.979760  1
  O  O43  1  0.196874  0.042225  0.556063  1
  O  O44  1  0.362087  0.802184  0.479760  1
  O  O45  1  0.811760  0.975023  0.117558  1
  O  O46  1  0.705323  0.215835  0.851009  1
  O  O47  1  0.688240  0.975023  0.617558  1
  O  O48  1  0.362087  0.302184  0.020240  1
  O  O49  1  0.137913  0.302184  0.520240  1
  O  O50  1  0.696874  0.457775  0.556063  1
  O  O51  1  0.696874  0.957775  0.943937  1
  O  O52  1  0.688240  0.475023  0.882442  1
  O  O53  1  0.862087  0.697816  0.479760  1
  O  O54  1  0.862087  0.197816  0.020240  1
  O  O55  1  0.637913  0.697816  0.979760  1
  O  O56  1  0.811760  0.475023  0.382442  1
  O  O57  1  0.794677  0.715835  0.148991  1
  O  O58  1  0.294677  0.284165  0.351009  1
  O  O59  1  0.188240  0.524977  0.617558  1
  O  O60  1  0.311760  0.524977  0.117558  1
  O  O61  1  0.426773  0.171893  0.692975  1
  O  O62  1  0.311760  0.024977  0.382442  1
  O  O63  1  0.426773  0.671893  0.807025  1
