# generated using pymatgen
data_Ni(GeO3)2
_symmetry_space_group_name_H-M   'P 1'
_cell_length_a   5.54291434
_cell_length_b   6.61837872
_cell_length_c   6.61837932
_cell_angle_alpha   83.02846787
_cell_angle_beta   75.32933981
_cell_angle_gamma   75.32934282
_symmetry_Int_Tables_number   1
_chemical_formula_structural   Ni(GeO3)2
_chemical_formula_sum   'Ni2 Ge4 O12'
_cell_volume   226.79722424
_cell_formula_units_Z   2
loop_
 _symmetry_equiv_pos_site_id
 _symmetry_equiv_pos_as_xyz
  1  'x, y, z'
loop_
 _atom_site_type_symbol
 _atom_site_label
 _atom_site_symmetry_multiplicity
 _atom_site_fract_x
 _atom_site_fract_y
 _atom_site_fract_z
 _atom_site_occupancy
  Ni  Ni0  1  0.750000  0.919045  0.080955  1
  Ni  Ni1  1  0.250000  0.080955  0.919045  1
  Ge  Ge2  1  0.766353  0.390109  0.204151  1
  Ge  Ge3  1  0.733647  0.795849  0.609891  1
  Ge  Ge4  1  0.233647  0.609891  0.795849  1
  Ge  Ge5  1  0.266353  0.204151  0.390109  1
  O  O6  1  0.493557  0.346529  0.391578  1
  O  O7  1  0.006443  0.608422  0.653471  1
  O  O8  1  0.506443  0.653471  0.608422  1
  O  O9  1  0.993557  0.391578  0.346529  1
  O  O10  1  0.196702  0.070334  0.637828  1
  O  O11  1  0.303298  0.362173  0.929666  1
  O  O12  1  0.803298  0.929666  0.362173  1
  O  O13  1  0.696702  0.637828  0.070334  1
  O  O14  1  0.874574  0.189348  0.019113  1
  O  O15  1  0.625426  0.980887  0.810652  1
  O  O16  1  0.125426  0.810652  0.980887  1
  O  O17  1  0.374574  0.019113  0.189348  1
