# generated using pymatgen
data_MgMo3O8
_symmetry_space_group_name_H-M   'P 1'
_cell_length_a   6.23001275
_cell_length_b   6.23879032
_cell_length_c   9.42914382
_cell_angle_alpha   90.00000000
_cell_angle_beta   90.00000000
_cell_angle_gamma   59.95338683
_symmetry_Int_Tables_number   1
_chemical_formula_structural   MgMo3O8
_chemical_formula_sum   'Mg2 Mo6 O16'
_cell_volume   317.24006808
_cell_formula_units_Z   2
loop_
 _symmetry_equiv_pos_site_id
 _symmetry_equiv_pos_as_xyz
  1  'x, y, z'
loop_
 _atom_site_type_symbol
 _atom_site_label
 _atom_site_symmetry_multiplicity
 _atom_site_fract_x
 _atom_site_fract_y
 _atom_site_fract_z
 _atom_site_occupancy
  Mg  Mg0  1  0.673479  0.663260  0.968379  1
  Mg  Mg1  1  0.326521  0.336740  0.468379  1
  Mo  Mo2  1  0.331622  0.834189  0.260549  1
  Mo  Mo3  1  0.825928  0.835447  0.254900  1
  Mo  Mo4  1  0.825928  0.338624  0.254900  1
  Mo  Mo5  1  0.668378  0.165811  0.760549  1
  Mo  Mo6  1  0.174072  0.164553  0.754900  1
  Mo  Mo7  1  0.174072  0.661376  0.754900  1
  O  O8  1  0.988117  0.005942  0.152078  1
  O  O9  1  0.011883  0.994058  0.652078  1
  O  O10  1  0.680849  0.659575  0.372566  1
  O  O11  1  0.319151  0.340425  0.872566  1
  O  O12  1  0.944240  0.527880  0.135079  1
  O  O13  1  0.537083  0.518751  0.137629  1
  O  O14  1  0.537083  0.944166  0.137629  1
  O  O15  1  0.055760  0.472120  0.635079  1
  O  O16  1  0.462917  0.481249  0.637629  1
  O  O17  1  0.462917  0.055834  0.637629  1
  O  O18  1  0.334292  0.832854  0.859792  1
  O  O19  1  0.845805  0.827830  0.855250  1
  O  O20  1  0.845805  0.326364  0.855250  1
  O  O21  1  0.665708  0.167146  0.359792  1
  O  O22  1  0.154195  0.172170  0.355250  1
  O  O23  1  0.154195  0.673636  0.355250  1
