# generated using pymatgen
data_Mg(BiO2)2
_symmetry_space_group_name_H-M   'P 1'
_cell_length_a   6.83452081
_cell_length_b   6.83143573
_cell_length_c   6.83125963
_cell_angle_alpha   90.01983338
_cell_angle_beta   119.97467067
_cell_angle_gamma   119.97013908
_symmetry_Int_Tables_number   1
_chemical_formula_structural   Mg(BiO2)2
_chemical_formula_sum   'Mg2 Bi4 O8'
_cell_volume   225.67983444
_cell_formula_units_Z   2
loop_
 _symmetry_equiv_pos_site_id
 _symmetry_equiv_pos_as_xyz
  1  'x, y, z'
loop_
 _atom_site_type_symbol
 _atom_site_label
 _atom_site_symmetry_multiplicity
 _atom_site_fract_x
 _atom_site_fract_y
 _atom_site_fract_z
 _atom_site_occupancy
  Mg  Mg0  1  0.250019  0.125063  0.875077  1
  Mg  Mg1  1  0.750032  0.874933  0.124940  1
  Bi  Bi2  1  0.501530  0.000007  0.499783  1
  Bi  Bi3  1  0.498580  0.498625  0.499859  1
  Bi  Bi4  1  0.999512  0.499574  -0.000004  1
  Bi  Bi5  1  0.000326  0.501764  0.500327  1
  O  O6  1  -0.000656  0.751196  0.250021  1
  O  O7  1  0.500393  0.750442  0.751866  1
  O  O8  1  0.500526  0.750284  0.248575  1
  O  O9  1  0.000568  0.751876  0.750133  1
  O  O10  1  0.499866  0.250460  0.751799  1
  O  O11  1  0.499529  0.249629  0.248144  1
  O  O12  1  -0.000280  0.248058  0.249419  1
  O  O13  1  0.000054  0.248091  0.750062  1
