# generated using pymatgen
data_BaTi4O8
_symmetry_space_group_name_H-M   'P 1'
_cell_length_a   5.78506243
_cell_length_b   5.78506192
_cell_length_c   7.95869682
_cell_angle_alpha   90.00000000
_cell_angle_beta   90.00000000
_cell_angle_gamma   119.99999865
_symmetry_Int_Tables_number   1
_chemical_formula_structural   BaTi4O8
_chemical_formula_sum   'Ba1 Ti4 O8'
_cell_volume   230.66869598
_cell_formula_units_Z   1
loop_
 _symmetry_equiv_pos_site_id
 _symmetry_equiv_pos_as_xyz
  1  'x, y, z'
loop_
 _atom_site_type_symbol
 _atom_site_label
 _atom_site_symmetry_multiplicity
 _atom_site_fract_x
 _atom_site_fract_y
 _atom_site_fract_z
 _atom_site_occupancy
  Ba  Ba0  1  0.000000  0.000000  0.000000  1
  Ti  Ti1  1  0.333333  0.666667  0.765218  1
  Ti  Ti2  1  0.666667  0.333333  0.765218  1
  Ti  Ti3  1  0.333333  0.666667  0.234782  1
  Ti  Ti4  1  0.666667  0.333333  0.234782  1
  O  O5  1  0.368134  0.368134  0.722897  1
  O  O6  1  0.631866  0.000000  0.722897  1
  O  O7  1  1.000000  0.631866  0.722897  1
  O  O8  1  0.631866  0.631866  0.277103  1
  O  O9  1  0.000000  0.368134  0.277103  1
  O  O10  1  0.368134  1.000000  0.277103  1
  O  O11  1  0.333333  0.666667  0.000000  1
  O  O12  1  0.666667  0.333333  0.000000  1
