# generated using pymatgen
data_LiCo(CO)4
_symmetry_space_group_name_H-M   'P 1'
_cell_length_a   5.62711233
_cell_length_b   5.62727978
_cell_length_c   5.62712523
_cell_angle_alpha   90.00302676
_cell_angle_beta   89.99552063
_cell_angle_gamma   90.00787488
_symmetry_Int_Tables_number   1
_chemical_formula_structural   LiCo(CO)4
_chemical_formula_sum   'Li1 Co1 C4 O4'
_cell_volume   178.18480566
_cell_formula_units_Z   1
loop_
 _symmetry_equiv_pos_site_id
 _symmetry_equiv_pos_as_xyz
  1  'x, y, z'
loop_
 _atom_site_type_symbol
 _atom_site_label
 _atom_site_symmetry_multiplicity
 _atom_site_fract_x
 _atom_site_fract_y
 _atom_site_fract_z
 _atom_site_occupancy
  Li  Li0  1  0.999998  1.000004  0.000001  1
  Co  Co1  1  0.499980  0.500093  0.499983  1
  C  C2  1  0.322386  0.677610  0.677650  1
  C  C3  1  0.677718  0.677666  0.322295  1
  C  C4  1  0.322381  0.322333  0.322387  1
  C  C5  1  0.677646  0.322346  0.677628  1
  O  O6  1  0.201408  0.798519  0.798557  1
  O  O7  1  0.201454  0.201475  0.201533  1
  O  O8  1  0.798520  0.798543  0.201415  1
  O  O9  1  0.798506  0.201414  0.798553  1
