# generated using pymatgen
data_MgP2W2O9
_symmetry_space_group_name_H-M   'P 1'
_cell_length_a   6.70668337
_cell_length_b   7.17398390
_cell_length_c   15.03611544
_cell_angle_alpha   90.00446827
_cell_angle_beta   89.99998799
_cell_angle_gamma   90.00001851
_symmetry_Int_Tables_number   1
_chemical_formula_structural   MgP2W2O9
_chemical_formula_sum   'Mg4 P8 W8 O36'
_cell_volume   723.44222043
_cell_formula_units_Z   4
loop_
 _symmetry_equiv_pos_site_id
 _symmetry_equiv_pos_as_xyz
  1  'x, y, z'
loop_
 _atom_site_type_symbol
 _atom_site_label
 _atom_site_symmetry_multiplicity
 _atom_site_fract_x
 _atom_site_fract_y
 _atom_site_fract_z
 _atom_site_occupancy
  Mg  Mg0  1  0.749999  0.920093  0.768018  1
  Mg  Mg1  1  0.750002  0.579871  0.267986  1
  Mg  Mg2  1  0.249999  0.420069  0.732020  1
  Mg  Mg3  1  0.250002  0.079902  0.231988  1
  P  P4  1  0.250000  0.377995  0.921136  1
  P  P5  1  0.750001  0.622007  0.078866  1
  P  P6  1  0.750000  0.878010  0.578871  1
  P  P7  1  0.250000  0.121992  0.421129  1
  P  P8  1  0.750000  0.399772  0.691387  1
  P  P9  1  0.750000  0.100257  0.191392  1
  P  P10  1  0.250000  0.899750  0.808606  1
  P  P11  1  0.250001  0.600226  0.308611  1
  W  W12  1  0.750000  0.374069  0.875146  1
  W  W13  1  0.250001  0.625933  0.124853  1
  W  W14  1  0.250000  0.874127  0.624843  1
  W  W15  1  0.750000  0.125872  0.375157  1
  W  W16  1  0.500000  0.000003  0.000000  1
  W  W17  1  0.500001  0.500001  0.500000  1
  W  W18  1  0.000000  0.500001  0.500000  1
  W  W19  1  0.000001  0.000004  0.000000  1
  O  O20  1  0.051722  0.600147  0.362523  1
  O  O21  1  0.551723  0.399848  0.637475  1
  O  O22  1  0.948267  0.100209  0.137473  1
  O  O23  1  0.448267  0.899801  0.862525  1
  O  O24  1  0.948279  0.399848  0.637476  1
  O  O25  1  0.448278  0.600147  0.362523  1
  O  O26  1  0.051734  0.899801  0.862526  1
  O  O27  1  0.551734  0.100209  0.137473  1
  O  O28  1  0.250001  0.315266  0.470314  1
  O  O29  1  0.750001  0.684734  0.529686  1
  O  O30  1  0.750000  0.815251  0.029670  1
  O  O31  1  0.250000  0.184753  0.970333  1
  O  O32  1  0.750000  0.115004  0.935392  1
  O  O33  1  0.250001  0.884999  0.064608  1
  O  O34  1  0.250001  0.615116  0.564549  1
  O  O35  1  0.750001  0.384889  0.435447  1
  O  O36  1  0.750000  0.219090  0.750945  1
  O  O37  1  0.250001  0.780909  0.249055  1
  O  O38  1  0.250000  0.719088  0.749021  1
  O  O39  1  0.750000  0.280918  0.250979  1
  O  O40  1  0.428380  0.113584  0.355276  1
  O  O41  1  0.928379  0.886419  0.644724  1
  O  O42  1  0.571626  0.613618  0.144712  1
  O  O43  1  0.071625  0.386377  0.855288  1
  O  O44  1  0.571620  0.886419  0.644724  1
  O  O45  1  0.071621  0.113584  0.355276  1
  O  O46  1  0.428374  0.386377  0.855287  1
  O  O47  1  0.928375  0.613618  0.144712  1
  O  O48  1  0.750001  0.470941  0.009640  1
  O  O49  1  0.250000  0.067788  0.741181  1
  O  O50  1  0.250000  0.432220  0.241151  1
  O  O51  1  0.750000  0.567779  0.758847  1
  O  O52  1  0.750000  0.029011  0.509647  1
  O  O53  1  0.250000  0.970989  0.490352  1
  O  O54  1  0.250000  0.529065  0.990357  1
  O  O55  1  0.750000  0.932225  0.258818  1
