# generated using pymatgen
data_MgMo2O5
_symmetry_space_group_name_H-M   'P 1'
_cell_length_a   3.92064272
_cell_length_b   5.57567288
_cell_length_c   11.79985504
_cell_angle_alpha   90.00000000
_cell_angle_beta   90.00000000
_cell_angle_gamma   110.56731976
_symmetry_Int_Tables_number   1
_chemical_formula_structural   MgMo2O5
_chemical_formula_sum   'Mg2 Mo4 O10'
_cell_volume   241.50588955
_cell_formula_units_Z   2
loop_
 _symmetry_equiv_pos_site_id
 _symmetry_equiv_pos_as_xyz
  1  'x, y, z'
loop_
 _atom_site_type_symbol
 _atom_site_label
 _atom_site_symmetry_multiplicity
 _atom_site_fract_x
 _atom_site_fract_y
 _atom_site_fract_z
 _atom_site_occupancy
  Mg  Mg0  1  0.891343  0.782401  0.750000  1
  Mg  Mg1  1  0.108658  0.217600  0.250000  1
  Mo  Mo2  1  0.199108  0.397911  0.597795  1
  Mo  Mo3  1  0.800893  0.602090  0.402204  1
  Mo  Mo4  1  0.800893  0.602090  0.097796  1
  Mo  Mo5  1  0.199108  0.397911  0.902205  1
  O  O6  1  0.700237  0.401026  0.250000  1
  O  O7  1  0.299764  0.598975  0.750000  1
  O  O8  1  0.234862  0.469903  0.079617  1
  O  O9  1  0.765140  0.530098  0.920383  1
  O  O10  1  0.765140  0.530098  0.579617  1
  O  O11  1  0.234862  0.469903  0.420382  1
  O  O12  1  0.029702  0.058920  0.634011  1
  O  O13  1  0.970298  0.941079  0.365989  1
  O  O14  1  0.029702  0.058920  0.865989  1
  O  O15  1  0.970298  0.941079  0.134012  1
