# generated using pymatgen
data_Mg(CoO2)2
_symmetry_space_group_name_H-M   'P 1'
_cell_length_a   2.92949441
_cell_length_b   9.61700750
_cell_length_c   9.66946200
_cell_angle_alpha   89.99778988
_cell_angle_beta   90.00012870
_cell_angle_gamma   89.99582486
_symmetry_Int_Tables_number   1
_chemical_formula_structural   Mg(CoO2)2
_chemical_formula_sum   'Mg4 Co8 O16'
_cell_volume   272.41745934
_cell_formula_units_Z   4
loop_
 _symmetry_equiv_pos_site_id
 _symmetry_equiv_pos_as_xyz
  1  'x, y, z'
loop_
 _atom_site_type_symbol
 _atom_site_label
 _atom_site_symmetry_multiplicity
 _atom_site_fract_x
 _atom_site_fract_y
 _atom_site_fract_z
 _atom_site_occupancy
  Mg  Mg0  1  0.261403  0.750107  0.139640  1
  Mg  Mg1  1  0.261504  0.249820  0.360371  1
  Mg  Mg2  1  0.738507  0.750088  0.639638  1
  Mg  Mg3  1  0.738537  0.249782  0.860351  1
  Co  Co4  1  0.752937  0.572068  0.383003  1
  Co  Co5  1  0.753029  0.071827  0.116975  1
  Co  Co6  1  0.247072  0.071863  0.616943  1
  Co  Co7  1  0.752972  0.427937  0.116976  1
  Co  Co8  1  0.246960  0.427951  0.616981  1
  Co  Co9  1  0.753035  0.928149  0.383081  1
  Co  Co10  1  0.247057  0.928142  0.883039  1
  Co  Co11  1  0.246995  0.572039  0.883002  1
  O  O12  1  0.250304  0.885383  0.527250  1
  O  O13  1  0.749802  0.114634  0.472779  1
  O  O14  1  0.255229  0.000022  0.250023  1
  O  O15  1  0.749748  0.885351  0.027244  1
  O  O16  1  0.749735  0.614562  0.027220  1
  O  O17  1  0.760298  0.250168  0.206676  1
  O  O18  1  0.250334  0.114626  0.972788  1
  O  O19  1  0.239699  0.250191  0.706722  1
  O  O20  1  0.255165  0.500019  0.249984  1
  O  O21  1  0.744859  0.000068  0.750045  1
  O  O22  1  0.250232  0.614573  0.527179  1
  O  O23  1  0.239683  0.749854  0.793341  1
  O  O24  1  0.760230  0.749830  0.293300  1
  O  O25  1  0.744799  0.500049  0.749945  1
  O  O26  1  0.250221  0.385427  0.972737  1
  O  O27  1  0.749652  0.385466  0.472767  1
