# generated using pymatgen
data_MgNiF4
_symmetry_space_group_name_H-M   'P 1'
_cell_length_a   5.05410161
_cell_length_b   5.05671222
_cell_length_c   6.16572193
_cell_angle_alpha   113.95862872
_cell_angle_beta   114.21242631
_cell_angle_gamma   90.03004459
_symmetry_Int_Tables_number   1
_chemical_formula_structural   MgNiF4
_chemical_formula_sum   'Mg2 Ni2 F8'
_cell_volume   128.66793478
_cell_formula_units_Z   2
loop_
 _symmetry_equiv_pos_site_id
 _symmetry_equiv_pos_as_xyz
  1  'x, y, z'
loop_
 _atom_site_type_symbol
 _atom_site_label
 _atom_site_symmetry_multiplicity
 _atom_site_fract_x
 _atom_site_fract_y
 _atom_site_fract_z
 _atom_site_occupancy
  Mg  Mg0  1  0.249828  0.250084  0.500873  1
  Mg  Mg1  1  0.750611  0.749825  0.500903  1
  Ni  Ni2  1  0.001869  0.501609  0.003941  1
  Ni  Ni3  1  0.499111  0.999207  0.997898  1
  F  F4  1  0.929108  0.431080  0.267950  1
  F  F5  1  0.664868  0.164567  0.742846  1
  F  F6  1  0.074455  0.572877  0.740050  1
  F  F7  1  0.161341  0.069990  0.734504  1
  F  F8  1  0.337997  0.839043  0.265763  1
  F  F9  1  0.424359  0.336158  0.259441  1
  F  F10  1  0.835814  0.928006  0.261819  1
  F  F11  1  0.572579  0.661541  0.736029  1
