# generated using pymatgen
data_MgTi2P2O9
_symmetry_space_group_name_H-M   'P 1'
_cell_length_a   6.36497825
_cell_length_b   7.45689326
_cell_length_c   14.33888759
_cell_angle_alpha   89.94820464
_cell_angle_beta   90.10674994
_cell_angle_gamma   90.06911209
_symmetry_Int_Tables_number   1
_chemical_formula_structural   MgTi2P2O9
_chemical_formula_sum   'Mg4 Ti8 P8 O36'
_cell_volume   680.56414414
_cell_formula_units_Z   4
loop_
 _symmetry_equiv_pos_site_id
 _symmetry_equiv_pos_as_xyz
  1  'x, y, z'
loop_
 _atom_site_type_symbol
 _atom_site_label
 _atom_site_symmetry_multiplicity
 _atom_site_fract_x
 _atom_site_fract_y
 _atom_site_fract_z
 _atom_site_occupancy
  Mg  Mg0  1  0.750387  0.929393  0.771553  1
  Mg  Mg1  1  0.750331  0.570845  0.271548  1
  Mg  Mg2  1  0.249664  0.429133  0.728541  1
  Mg  Mg3  1  0.249615  0.070591  0.228413  1
  Ti  Ti4  1  0.748811  0.352825  0.881963  1
  Ti  Ti5  1  0.251245  0.646906  0.117968  1
  Ti  Ti6  1  0.249843  0.852405  0.618184  1
  Ti  Ti7  1  0.750098  0.147627  0.381910  1
  Ti  Ti8  1  0.500092  0.000007  -0.000008  1
  Ti  Ti9  1  0.499729  0.499746  0.499999  1
  Ti  Ti10  1  0.000270  0.499827  0.500002  1
  Ti  Ti11  1  0.999956  0.999982  0.000008  1
  P  P12  1  0.249864  0.365765  0.926678  1
  P  P13  1  0.750153  0.634085  0.073233  1
  P  P14  1  0.749915  0.865458  0.573528  1
  P  P15  1  0.250068  0.134297  0.426475  1
  P  P16  1  0.750109  0.381026  0.695107  1
  P  P17  1  0.749979  0.118459  0.194939  1
  P  P18  1  0.250017  0.881544  0.805073  1
  P  P19  1  0.249902  0.618920  0.304947  1
  O  O20  1  0.041577  0.608264  0.362678  1
  O  O21  1  0.541517  0.392002  0.637239  1
  O  O22  1  0.957676  0.109436  0.137206  1
  O  O23  1  0.458888  0.892479  0.863066  1
  O  O24  1  0.958499  0.391715  0.637317  1
  O  O25  1  0.458405  0.608005  0.362764  1
  O  O26  1  0.042303  0.890558  0.862797  1
  O  O27  1  0.541128  0.107514  0.136937  1
  O  O28  1  0.250226  0.323212  0.473046  1
  O  O29  1  0.749758  0.676647  0.526896  1
  O  O30  1  0.749151  0.823371  0.027007  1
  O  O31  1  0.250832  0.176586  0.972999  1
  O  O32  1  0.755881  0.128855  0.942021  1
  O  O33  1  0.244058  0.871430  0.057953  1
  O  O34  1  0.249938  0.631881  0.556903  1
  O  O35  1  0.750159  0.369025  0.442992  1
  O  O36  1  0.749694  0.202958  0.753140  1
  O  O37  1  0.250302  0.797112  0.246825  1
  O  O38  1  0.250618  0.703368  0.746998  1
  O  O39  1  0.749370  0.296613  0.253038  1
  O  O40  1  0.436353  0.120119  0.357543  1
  O  O41  1  0.936459  0.879800  0.642521  1
  O  O42  1  0.563742  0.619665  0.142375  1
  O  O43  1  0.063246  0.380425  0.857781  1
  O  O44  1  0.563673  0.879870  0.642435  1
  O  O45  1  0.063495  0.120150  0.357472  1
  O  O46  1  0.436229  0.380266  0.857649  1
  O  O47  1  0.936721  0.619557  0.142234  1
  O  O48  1  0.749572  0.493165  0.998114  1
  O  O49  1  0.250277  0.033673  0.731465  1
  O  O50  1  0.249623  0.467500  0.231071  1
  O  O51  1  0.750399  0.532520  0.768918  1
  O  O52  1  0.750008  0.007293  0.498112  1
  O  O53  1  0.250005  0.992744  0.501871  1
  O  O54  1  0.250451  0.507026  0.001987  1
  O  O55  1  0.749736  0.966349  0.268564  1
