# generated using pymatgen
data_SbO2
_symmetry_space_group_name_H-M   'P 1'
_cell_length_a   7.22802399
_cell_length_b   6.52357865
_cell_length_c   6.52357780
_cell_angle_alpha   59.99998978
_cell_angle_beta   63.17481523
_cell_angle_gamma   63.17482283
_symmetry_Int_Tables_number   1
_chemical_formula_structural   SbO2
_chemical_formula_sum   'Sb4 O8'
_cell_volume   227.36781669
_cell_formula_units_Z   4
loop_
 _symmetry_equiv_pos_site_id
 _symmetry_equiv_pos_as_xyz
  1  'x, y, z'
loop_
 _atom_site_type_symbol
 _atom_site_label
 _atom_site_symmetry_multiplicity
 _atom_site_fract_x
 _atom_site_fract_y
 _atom_site_fract_z
 _atom_site_occupancy
  Sb  Sb0  1  0.298812  0.233730  0.233730  1
  Sb  Sb1  1  0.633170  0.107107  0.629861  1
  Sb  Sb2  1  0.633170  0.629861  0.107106  1
  Sb  Sb3  1  0.633170  0.629861  0.629861  1
  O  O4  1  0.449243  0.350562  0.350562  1
  O  O5  1  0.449243  0.350562  0.849633  1
  O  O6  1  0.449243  0.849633  0.350562  1
  O  O7  1  0.769642  0.410119  0.410119  1
  O  O8  1  0.438795  0.853734  0.853734  1
  O  O9  1  0.792620  0.436030  0.885675  1
  O  O10  1  0.792620  0.885675  0.436030  1
  O  O11  1  0.792620  0.885675  0.885675  1
