# generated using pymatgen
data_Mg(Co2O3)2
_symmetry_space_group_name_H-M   'P 1'
_cell_length_a   2.96418514
_cell_length_b   5.15708948
_cell_length_c   15.13181158
_cell_angle_alpha   90.00000000
_cell_angle_beta   90.00000000
_cell_angle_gamma   106.70171863
_symmetry_Int_Tables_number   1
_chemical_formula_structural   Mg(Co2O3)2
_chemical_formula_sum   'Mg2 Co8 O12'
_cell_volume   221.55524796
_cell_formula_units_Z   2
loop_
 _symmetry_equiv_pos_site_id
 _symmetry_equiv_pos_as_xyz
  1  'x, y, z'
loop_
 _atom_site_type_symbol
 _atom_site_label
 _atom_site_symmetry_multiplicity
 _atom_site_fract_x
 _atom_site_fract_y
 _atom_site_fract_z
 _atom_site_occupancy
  Mg  Mg0  1  0.658071  0.316143  0.750000  1
  Mg  Mg1  1  0.341929  0.683857  0.250000  1
  Co  Co2  1  0.864340  0.728683  0.047773  1
  Co  Co3  1  0.403305  0.806608  0.639644  1
  Co  Co4  1  0.135658  0.271316  0.952227  1
  Co  Co5  1  0.596695  0.193392  0.360357  1
  Co  Co6  1  0.864340  0.728683  0.452227  1
  Co  Co7  1  0.135658  0.271316  0.547773  1
  Co  Co8  1  0.596695  0.193392  0.139643  1
  Co  Co9  1  0.403305  0.806608  0.860356  1
  O  O10  1  0.499999  0.000000  0.500000  1
  O  O11  1  0.499999  -0.000000  0.000000  1
  O  O12  1  0.054696  0.109391  0.840979  1
  O  O13  1  0.945304  0.890609  0.159022  1
  O  O14  1  0.945304  0.890609  0.340978  1
  O  O15  1  0.054696  0.109391  0.659022  1
  O  O16  1  0.775977  0.551955  0.926685  1
  O  O17  1  0.224022  0.448046  0.073315  1
  O  O18  1  0.224022  0.448046  0.426685  1
  O  O19  1  0.775977  0.551955  0.573315  1
  O  O20  1  0.301733  0.603466  0.750000  1
  O  O21  1  0.698265  0.396533  0.250000  1
