# generated using pymatgen
data_Ta2WO8
_symmetry_space_group_name_H-M   'P 1'
_cell_length_a   5.17231956
_cell_length_b   6.13620222
_cell_length_c   10.45268325
_cell_angle_alpha   106.97529527
_cell_angle_beta   88.41010223
_cell_angle_gamma   89.99747736
_symmetry_Int_Tables_number   1
_chemical_formula_structural   Ta2WO8
_chemical_formula_sum   'Ta4 W2 O16'
_cell_volume   317.16360079
_cell_formula_units_Z   2
loop_
 _symmetry_equiv_pos_site_id
 _symmetry_equiv_pos_as_xyz
  1  'x, y, z'
loop_
 _atom_site_type_symbol
 _atom_site_label
 _atom_site_symmetry_multiplicity
 _atom_site_fract_x
 _atom_site_fract_y
 _atom_site_fract_z
 _atom_site_occupancy
  Ta  Ta0  1  0.754605  0.310145  0.265558  1
  Ta  Ta1  1  0.744877  0.045727  0.734046  1
  Ta  Ta2  1  0.244757  0.686862  0.734016  1
  Ta  Ta3  1  0.254691  0.951127  0.265363  1
  W  W4  1  0.749775  0.655134  0.999706  1
  W  W5  1  0.249806  0.342395  0.999790  1
  O  O6  1  0.079215  0.215444  0.115251  1
  O  O7  1  0.420374  0.100492  0.884364  1
  O  O8  1  0.920332  0.782329  0.884311  1
  O  O9  1  0.579183  0.897080  0.115083  1
  O  O10  1  0.568678  0.437656  0.102943  1
  O  O11  1  0.930949  0.334977  0.896578  1
  O  O12  1  0.430907  0.559940  0.896572  1
  O  O13  1  0.068671  0.662660  0.102853  1
  O  O14  1  0.423991  0.241712  0.325625  1
  O  O15  1  0.075555  0.917747  0.673869  1
  O  O16  1  0.353520  0.796991  0.369841  1
  O  O17  1  0.145884  0.429050  0.629434  1
  O  O18  1  0.645669  0.198981  0.629203  1
  O  O19  1  0.853531  0.567635  0.370466  1
  O  O20  1  0.923941  0.078982  0.325411  1
  O  O21  1  0.575614  0.755072  0.674125  1
