# generated using pymatgen
data_VPO4
_symmetry_space_group_name_H-M   'P 1'
_cell_length_a   5.13255551
_cell_length_b   9.14789855
_cell_length_c   14.10026204
_cell_angle_alpha   83.11961595
_cell_angle_beta   79.51359603
_cell_angle_gamma   73.70804350
_symmetry_Int_Tables_number   1
_chemical_formula_structural   VPO4
_chemical_formula_sum   'V8 P8 O32'
_cell_volume   623.17990319
_cell_formula_units_Z   8
loop_
 _symmetry_equiv_pos_site_id
 _symmetry_equiv_pos_as_xyz
  1  'x, y, z'
loop_
 _atom_site_type_symbol
 _atom_site_label
 _atom_site_symmetry_multiplicity
 _atom_site_fract_x
 _atom_site_fract_y
 _atom_site_fract_z
 _atom_site_occupancy
  V  V0  1  0.182580  0.238735  0.982910  1
  V  V1  1  0.404224  0.261265  0.517090  1
  V  V2  1  0.817420  0.761265  0.017090  1
  V  V3  1  0.500000  0.500000  -0.000000  1
  V  V4  1  0.595776  0.738735  0.482910  1
  V  V5  1  0.663949  0.750000  0.250000  1
  V  V6  1  0.336051  0.250000  0.750000  1
  V  V7  1  -0.000000  -0.000000  0.500000  1
  P  P8  1  0.058830  0.573541  0.856717  1
  P  P9  1  0.780744  0.398289  0.616383  1
  P  P10  1  0.941170  0.426459  0.143283  1
  P  P11  1  0.204583  0.898289  0.116383  1
  P  P12  1  0.510911  0.073541  0.356717  1
  P  P13  1  0.489089  0.926459  0.643283  1
  P  P14  1  0.219256  0.601711  0.383617  1
  P  P15  1  0.795417  0.101711  0.883617  1
  O  O16  1  0.774531  0.368924  0.077122  1
  O  O17  1  0.830259  0.941693  0.934660  1
  O  O18  1  0.779425  0.868924  0.577122  1
  O  O19  1  0.769466  0.275032  0.549880  1
  O  O20  1  0.226351  0.391217  0.067792  1
  O  O21  1  0.570108  0.390992  0.708332  1
  O  O22  1  0.594377  0.224968  0.950120  1
  O  O23  1  0.921029  0.857531  0.137671  1
  O  O24  1  0.230534  0.724968  0.450120  1
  O  O25  1  0.706611  0.558307  0.565340  1
  O  O26  1  0.836998  0.606933  0.134133  1
  O  O27  1  0.565621  0.140247  0.258328  1
  O  O28  1  0.169741  0.058307  0.065340  1
  O  O29  1  0.083769  0.357531  0.637671  1
  O  O30  1  0.225469  0.631076  0.922878  1
  O  O31  1  0.163002  0.393067  0.865867  1
  O  O32  1  0.035803  0.640247  0.758328  1
  O  O33  1  0.405623  0.775032  0.049880  1
  O  O34  1  0.421936  0.106933  0.634133  1
  O  O35  1  0.434379  0.859753  0.741672  1
  O  O36  1  0.916231  0.642469  0.362329  1
  O  O37  1  0.314640  0.891217  0.567792  1
  O  O38  1  0.078971  0.142469  0.862329  1
  O  O39  1  0.330568  0.890992  0.208332  1
  O  O40  1  0.293389  0.441693  0.434660  1
  O  O41  1  0.220575  0.131076  0.422878  1
  O  O42  1  0.964197  0.359753  0.241672  1
  O  O43  1  0.685360  0.108783  0.432208  1
  O  O44  1  0.773649  0.608783  0.932208  1
  O  O45  1  0.669432  0.109008  0.791668  1
  O  O46  1  0.429892  0.609008  0.291668  1
  O  O47  1  0.578065  0.893067  0.365867  1
