# generated using pymatgen
data_Mg(MoO2)2
_symmetry_space_group_name_H-M   'P 1'
_cell_length_a   3.14024785
_cell_length_b   9.61449926
_cell_length_c   11.02801870
_cell_angle_alpha   90.02231904
_cell_angle_beta   89.99996302
_cell_angle_gamma   90.00000000
_symmetry_Int_Tables_number   1
_chemical_formula_structural   Mg(MoO2)2
_chemical_formula_sum   'Mg4 Mo8 O16'
_cell_volume   332.95692971
_cell_formula_units_Z   4
loop_
 _symmetry_equiv_pos_site_id
 _symmetry_equiv_pos_as_xyz
  1  'x, y, z'
loop_
 _atom_site_type_symbol
 _atom_site_label
 _atom_site_symmetry_multiplicity
 _atom_site_fract_x
 _atom_site_fract_y
 _atom_site_fract_z
 _atom_site_occupancy
  Mg  Mg0  1  0.750000  0.248146  0.342301  1
  Mg  Mg1  1  0.250000  0.751819  0.657703  1
  Mg  Mg2  1  0.750000  0.747937  0.157693  1
  Mg  Mg3  1  0.250000  0.251998  0.842318  1
  Mo  Mo4  1  0.250000  0.398279  0.098569  1
  Mo  Mo5  1  0.750000  0.101764  0.598484  1
  Mo  Mo6  1  0.250000  0.898246  0.401440  1
  Mo  Mo7  1  0.750000  0.601739  0.901502  1
  Mo  Mo8  1  0.749999  0.549817  0.377962  1
  Mo  Mo9  1  0.250000  0.450174  0.622131  1
  Mo  Mo10  1  0.750000  0.049752  0.122136  1
  Mo  Mo11  1  0.250000  0.950249  0.877774  1
  O  O12  1  0.250000  0.900001  0.071427  1
  O  O13  1  0.750000  0.100065  0.928453  1
  O  O14  1  0.249998  0.399923  0.428429  1
  O  O15  1  0.749999  0.600116  0.571678  1
  O  O16  1  0.249999  0.075380  0.721796  1
  O  O17  1  0.750000  0.924568  0.278090  1
  O  O18  1  0.250000  0.575089  0.778317  1
  O  O19  1  0.749999  0.424876  0.221786  1
  O  O20  1  0.249999  0.618938  0.045688  1
  O  O21  1  0.750000  0.381119  0.954418  1
  O  O22  1  0.250001  0.118880  0.454402  1
  O  O23  1  0.749999  0.881156  0.545501  1
  O  O24  1  0.750000  0.809964  0.814477  1
  O  O25  1  0.250000  0.190027  0.185468  1
  O  O26  1  0.250000  0.689900  0.314787  1
  O  O27  1  0.749998  0.310077  0.685273  1
