# generated using pymatgen
data_Mg(NiO2)2
_symmetry_space_group_name_H-M   'P 1'
_cell_length_a   5.91203409
_cell_length_b   5.84567829
_cell_length_c   17.75780477
_cell_angle_alpha   60.54734574
_cell_angle_beta   59.14326995
_cell_angle_gamma   60.26757262
_symmetry_Int_Tables_number   1
_chemical_formula_structural   Mg(NiO2)2
_chemical_formula_sum   'Mg6 Ni12 O24'
_cell_volume   433.67430009
_cell_formula_units_Z   6
loop_
 _symmetry_equiv_pos_site_id
 _symmetry_equiv_pos_as_xyz
  1  'x, y, z'
loop_
 _atom_site_type_symbol
 _atom_site_label
 _atom_site_symmetry_multiplicity
 _atom_site_fract_x
 _atom_site_fract_y
 _atom_site_fract_z
 _atom_site_occupancy
  Mg  Mg0  1  0.116952  0.116877  0.049692  1
  Mg  Mg1  1  0.114396  0.119253  0.382307  1
  Mg  Mg2  1  0.496961  0.501261  0.333543  1
  Mg  Mg3  1  0.127350  0.118303  0.712182  1
  Mg  Mg4  1  0.501699  0.498649  0.000160  1
  Mg  Mg5  1  0.875518  0.877471  0.623268  1
  Ni  Ni6  1  0.498534  0.499903  0.165989  1
  Ni  Ni7  1  0.498526  0.003369  0.166021  1
  Ni  Ni8  1  0.494666  0.502535  0.500281  1
  Ni  Ni9  1  0.003576  0.498777  0.166232  1
  Ni  Ni10  1  0.494715  0.002071  0.500185  1
  Ni  Ni11  1  0.504843  0.500133  0.664986  1
  Ni  Ni12  1  0.881513  0.884773  0.283075  1
  Ni  Ni13  1  0.500834  0.495829  0.833325  1
  Ni  Ni14  1  0.997770  0.499384  0.501176  1
  Ni  Ni15  1  0.500799  0.003267  0.833344  1
  Ni  Ni16  1  0.006481  0.497017  0.833203  1
  Ni  Ni17  1  0.878799  0.879328  0.954067  1
  O  O18  1  0.257970  0.251141  0.095162  1
  O  O19  1  0.252580  0.255033  0.245744  1
  O  O20  1  0.257495  0.705218  0.095407  1
  O  O21  1  0.705442  0.255673  0.093990  1
  O  O22  1  0.244931  0.260074  0.427795  1
  O  O23  1  0.290317  0.748041  0.238266  1
  O  O24  1  0.254463  0.258318  0.575221  1
  O  O25  1  0.745313  0.293083  0.236647  1
  O  O26  1  0.752637  0.749215  0.083093  1
  O  O27  1  0.245602  0.711403  0.428144  1
  O  O28  1  0.703928  0.253638  0.429240  1
  O  O29  1  0.744945  0.751457  0.236987  1
  O  O30  1  0.275868  0.268599  0.748746  1
  O  O31  1  0.291537  0.745785  0.572711  1
  O  O32  1  0.735160  0.293830  0.578590  1
  O  O33  1  0.254568  0.258401  0.908998  1
  O  O34  1  0.742960  0.743742  0.424122  1
  O  O35  1  0.275526  0.709394  0.749321  1
  O  O36  1  0.716250  0.259907  0.755514  1
  O  O37  1  0.735603  0.733858  0.578966  1
  O  O38  1  0.275009  0.747035  0.909603  1
  O  O39  1  0.751643  0.266069  0.911427  1
  O  O40  1  0.744889  0.736230  0.761388  1
  O  O41  1  0.751432  0.746656  0.911883  1
