# generated using pymatgen
data_Mg4Sn5(TeO6)3
_symmetry_space_group_name_H-M   'P 1'
_cell_length_a   9.20673098
_cell_length_b   9.20673149
_cell_length_c   11.71460316
_cell_angle_alpha   87.62235519
_cell_angle_beta   87.62235552
_cell_angle_gamma   61.75149551
_symmetry_Int_Tables_number   1
_chemical_formula_structural   Mg4Sn5(TeO6)3
_chemical_formula_sum   'Mg8 Sn10 Te6 O36'
_cell_volume   873.69272470
_cell_formula_units_Z   2
loop_
 _symmetry_equiv_pos_site_id
 _symmetry_equiv_pos_as_xyz
  1  'x, y, z'
loop_
 _atom_site_type_symbol
 _atom_site_label
 _atom_site_symmetry_multiplicity
 _atom_site_fract_x
 _atom_site_fract_y
 _atom_site_fract_z
 _atom_site_occupancy
  Mg  Mg0  1  0.855267  0.545220  0.323848  1
  Mg  Mg1  1  0.484623  0.560998  0.208536  1
  Mg  Mg2  1  0.454780  0.144733  0.676152  1
  Mg  Mg3  1  0.439002  0.515377  0.791464  1
  Mg  Mg4  1  0.169333  0.876411  0.708672  1
  Mg  Mg5  1  0.153691  0.246950  0.823977  1
  Mg  Mg6  1  0.753050  0.846309  0.176023  1
  Mg  Mg7  1  0.123589  0.830667  0.291328  1
  Sn  Sn8  1  0.777071  0.484838  0.976746  1
  Sn  Sn9  1  0.093072  0.168681  0.476567  1
  Sn  Sn10  1  0.322119  0.324393  0.327816  1
  Sn  Sn11  1  0.932371  0.714217  0.827560  1
  Sn  Sn12  1  0.675607  0.677881  0.672184  1
  Sn  Sn13  1  0.973775  0.026225  0.000000  1
  Sn  Sn14  1  0.634603  0.365397  0.500000  1
  Sn  Sn15  1  0.285783  0.067630  0.172440  1
  Sn  Sn16  1  0.831319  0.906928  0.523433  1
  Sn  Sn17  1  0.515162  0.222929  0.023254  1
  Te  Te18  1  0.449295  0.862929  0.929084  1
  Te  Te19  1  0.803978  0.195837  0.249896  1
  Te  Te20  1  0.804163  0.196022  0.750104  1
  Te  Te21  1  0.471238  0.840883  0.428985  1
  Te  Te22  1  0.159117  0.528762  0.571015  1
  Te  Te23  1  0.137071  0.550705  0.070916  1
  O  O24  1  0.397332  0.072176  0.835321  1
  O  O25  1  0.690292  0.431722  0.832210  1
  O  O26  1  0.581778  0.596827  0.537924  1
  O  O27  1  0.722724  0.130694  0.424713  1
  O  O28  1  0.568278  0.309708  0.167790  1
  O  O29  1  0.869306  0.277276  0.575287  1
  O  O30  1  0.372921  0.770818  0.312075  1
  O  O31  1  0.042886  0.094566  0.828856  1
  O  O32  1  0.565611  0.297087  0.671419  1
  O  O33  1  0.059354  0.387446  0.405740  1
  O  O34  1  0.579704  0.616698  0.072170  1
  O  O35  1  0.549102  0.004198  0.094075  1
  O  O36  1  0.917891  0.959943  0.668168  1
  O  O37  1  0.701126  0.737004  0.906880  1
  O  O38  1  0.383302  0.420296  0.927830  1
  O  O39  1  0.235363  0.620743  0.187904  1
  O  O40  1  0.028578  0.775127  0.427807  1
  O  O41  1  0.262996  0.298874  0.093120  1
  O  O42  1  0.403173  0.418222  0.462076  1
  O  O43  1  0.224873  0.971422  0.572193  1
  O  O44  1  0.680343  0.788870  0.335161  1
  O  O45  1  0.907146  0.654768  0.593132  1
  O  O46  1  0.905434  0.957114  0.171144  1
  O  O47  1  0.379257  0.764637  0.812096  1
  O  O48  1  0.026568  0.794910  0.961768  1
  O  O49  1  0.739105  0.114516  0.924284  1
  O  O50  1  0.995802  0.450898  0.905925  1
  O  O51  1  0.229182  0.627079  0.687925  1
  O  O52  1  0.040057  0.082109  0.331832  1
  O  O53  1  0.345232  0.092854  0.406868  1
  O  O54  1  0.211130  0.319657  0.664839  1
  O  O55  1  0.885484  0.260895  0.075716  1
  O  O56  1  0.702913  0.434389  0.328581  1
  O  O57  1  0.612554  0.940646  0.594260  1
  O  O58  1  0.205089  0.973432  0.038232  1
  O  O59  1  0.927824  0.602668  0.164679  1
