# generated using pymatgen
data_Mg(NiO2)2
_symmetry_space_group_name_H-M   'P 1'
_cell_length_a   5.88538848
_cell_length_b   5.90060537
_cell_length_c   17.66735488
_cell_angle_alpha   59.86734626
_cell_angle_beta   60.16961766
_cell_angle_gamma   59.99036398
_symmetry_Int_Tables_number   1
_chemical_formula_structural   Mg(NiO2)2
_chemical_formula_sum   'Mg6 Ni12 O24'
_cell_volume   433.92213573
_cell_formula_units_Z   6
loop_
 _symmetry_equiv_pos_site_id
 _symmetry_equiv_pos_as_xyz
  1  'x, y, z'
loop_
 _atom_site_type_symbol
 _atom_site_label
 _atom_site_symmetry_multiplicity
 _atom_site_fract_x
 _atom_site_fract_y
 _atom_site_fract_z
 _atom_site_occupancy
  Mg  Mg0  1  0.119610  0.120212  0.046953  1
  Mg  Mg1  1  0.117674  0.120192  0.379371  1
  Mg  Mg2  1  0.498670  0.498565  0.001338  1
  Mg  Mg3  1  0.121252  0.124050  0.709827  1
  Mg  Mg4  1  0.882360  0.880220  0.285913  1
  Mg  Mg5  1  0.876409  0.873686  0.626722  1
  Ni  Ni6  1  0.002733  0.499304  0.166516  1
  Ni  Ni7  1  0.499383  0.498823  0.166390  1
  Ni  Ni8  1  0.000491  0.500348  0.499934  1
  Ni  Ni9  1  0.499457  0.002849  0.166515  1
  Ni  Ni10  1  0.499080  0.500358  0.332694  1
  Ni  Ni11  1  0.500346  0.499743  0.499969  1
  Ni  Ni12  1  0.004608  0.496819  0.833412  1
  Ni  Ni13  1  0.500393  -0.000110  0.500092  1
  Ni  Ni14  1  0.496497  0.004536  0.833470  1
  Ni  Ni15  1  0.502138  0.501347  0.665770  1
  Ni  Ni16  1  0.496822  0.497591  0.833646  1
  Ni  Ni17  1  0.878652  0.877957  0.955007  1
  O  O18  1  0.253034  0.253751  0.095216  1
  O  O19  1  0.256809  0.256436  0.244288  1
  O  O20  1  0.253769  0.708668  0.094732  1
  O  O21  1  0.708789  0.253651  0.095009  1
  O  O22  1  0.296779  0.743267  0.238794  1
  O  O23  1  0.258394  0.253628  0.424242  1
  O  O24  1  0.743584  0.295863  0.239308  1
  O  O25  1  0.748645  0.748873  0.083917  1
  O  O26  1  0.252868  0.712541  0.422800  1
  O  O27  1  0.253912  0.266413  0.572319  1
  O  O28  1  0.744278  0.743623  0.239020  1
  O  O29  1  0.709898  0.258012  0.423579  1
  O  O30  1  0.291505  0.735521  0.580422  1
  O  O31  1  0.265218  0.265405  0.751265  1
  O  O32  1  0.741188  0.288589  0.580831  1
  O  O33  1  0.748510  0.735858  0.425545  1
  O  O34  1  0.259837  0.260515  0.907160  1
  O  O35  1  0.267510  0.713717  0.749617  1
  O  O36  1  0.738141  0.741678  0.578527  1
  O  O37  1  0.711612  0.269172  0.749998  1
  O  O38  1  0.266098  0.748584  0.912002  1
  O  O39  1  0.734949  0.734577  0.764272  1
  O  O40  1  0.748911  0.266244  0.912196  1
  O  O41  1  0.749183  0.748924  0.911396  1
