# generated using pymatgen
data_MgFe4(CuO4)3
_symmetry_space_group_name_H-M   'P 1'
_cell_length_a   6.40625639
_cell_length_b   6.40625575
_cell_length_c   6.40625593
_cell_angle_alpha   109.47121865
_cell_angle_beta   109.47121659
_cell_angle_gamma   109.47122300
_symmetry_Int_Tables_number   1
_chemical_formula_structural   MgFe4(CuO4)3
_chemical_formula_sum   'Mg1 Fe4 Cu3 O12'
_cell_volume   202.39090929
_cell_formula_units_Z   1
loop_
 _symmetry_equiv_pos_site_id
 _symmetry_equiv_pos_as_xyz
  1  'x, y, z'
loop_
 _atom_site_type_symbol
 _atom_site_label
 _atom_site_symmetry_multiplicity
 _atom_site_fract_x
 _atom_site_fract_y
 _atom_site_fract_z
 _atom_site_occupancy
  Mg  Mg0  1  0.000000  0.000000  0.000000  1
  Fe  Fe1  1  0.000000  0.000000  0.500000  1
  Fe  Fe2  1  0.000000  0.500000  0.000000  1
  Fe  Fe3  1  0.500000  0.500000  0.500000  1
  Fe  Fe4  1  0.500000  0.000000  0.000000  1
  Cu  Cu5  1  0.500000  0.500000  0.000000  1
  Cu  Cu6  1  0.000000  0.500000  0.500000  1
  Cu  Cu7  1  0.500000  0.000000  0.500000  1
  O  O8  1  0.832733  0.310153  0.142887  1
  O  O9  1  0.167267  0.689847  0.857113  1
  O  O10  1  0.832733  0.689847  0.522582  1
  O  O11  1  0.310153  0.477418  0.167267  1
  O  O12  1  0.477418  0.167267  0.310153  1
  O  O13  1  0.142887  0.832733  0.310153  1
  O  O14  1  0.689847  0.857113  0.167267  1
  O  O15  1  0.522582  0.832733  0.689847  1
  O  O16  1  0.167267  0.310153  0.477418  1
  O  O17  1  0.689847  0.522582  0.832733  1
  O  O18  1  0.857113  0.167267  0.689847  1
  O  O19  1  0.310153  0.142887  0.832733  1
