# generated using pymatgen
data_MgMn3(P2O7)2
_symmetry_space_group_name_H-M   'P 1'
_cell_length_a   7.53893001
_cell_length_b   7.63282880
_cell_length_c   9.74597406
_cell_angle_alpha   90.00000000
_cell_angle_beta   112.33948711
_cell_angle_gamma   90.00000000
_symmetry_Int_Tables_number   1
_chemical_formula_structural   MgMn3(P2O7)2
_chemical_formula_sum   'Mg2 Mn6 P8 O28'
_cell_volume   518.72573510
_cell_formula_units_Z   2
loop_
 _symmetry_equiv_pos_site_id
 _symmetry_equiv_pos_as_xyz
  1  'x, y, z'
loop_
 _atom_site_type_symbol
 _atom_site_label
 _atom_site_symmetry_multiplicity
 _atom_site_fract_x
 _atom_site_fract_y
 _atom_site_fract_z
 _atom_site_occupancy
  Mg  Mg0  1  0.500000  -0.000000  -0.000000  1
  Mg  Mg1  1  0.500000  0.500000  0.500000  1
  Mn  Mn2  1  0.193196  0.879040  0.527242  1
  Mn  Mn3  1  0.806804  0.379040  0.972758  1
  Mn  Mn4  1  0.806804  0.120960  0.472758  1
  Mn  Mn5  1  0.193196  0.620960  0.027242  1
  Mn  Mn6  1  0.000000  -0.000000  -0.000000  1
  Mn  Mn7  1  0.000000  0.500000  0.500000  1
  P  P8  1  0.592368  0.081300  0.706281  1
  P  P9  1  0.407632  0.581300  0.793719  1
  P  P10  1  0.407632  0.918700  0.293719  1
  P  P11  1  0.592368  0.418700  0.206281  1
  P  P12  1  0.858141  0.791047  0.684758  1
  P  P13  1  0.141859  0.291047  0.815242  1
  P  P14  1  0.141859  0.208953  0.315242  1
  P  P15  1  0.858141  0.708953  0.184758  1
  O  O16  1  0.787804  0.619003  0.599897  1
  O  O17  1  0.212196  0.119003  0.900103  1
  O  O18  1  0.212196  0.380997  0.400103  1
  O  O19  1  0.787804  0.880997  0.099897  1
  O  O20  1  0.280630  0.619035  0.627875  1
  O  O21  1  0.719370  0.119035  0.872125  1
  O  O22  1  0.719370  0.380965  0.372125  1
  O  O23  1  0.280630  0.880965  0.127875  1
  O  O24  1  0.614776  0.218566  0.599889  1
  O  O25  1  0.385224  0.718566  0.900111  1
  O  O26  1  0.385224  0.781434  0.400111  1
  O  O27  1  0.614776  0.281434  0.099889  1
  O  O28  1  0.665095  0.895914  0.666339  1
  O  O29  1  0.334905  0.395914  0.833661  1
  O  O30  1  0.334905  0.104086  0.333661  1
  O  O31  1  0.665095  0.604086  0.166339  1
  O  O32  1  0.391741  0.462964  0.196641  1
  O  O33  1  0.608259  0.962964  0.303359  1
  O  O34  1  0.608259  0.537036  0.803359  1
  O  O35  1  0.391741  0.037036  0.696641  1
  O  O36  1  0.027463  0.220110  0.147946  1
  O  O37  1  0.972537  0.720110  0.352054  1
  O  O38  1  0.972537  0.779890  0.852054  1
  O  O39  1  0.027463  0.279890  0.647946  1
  O  O40  1  0.961807  0.595517  0.108460  1
  O  O41  1  0.038193  0.095517  0.391540  1
  O  O42  1  0.038193  0.404483  0.891540  1
  O  O43  1  0.961807  0.904483  0.608460  1
