# generated using pymatgen
data_Mg(BiO2)2
_symmetry_space_group_name_H-M   'P 1'
_cell_length_a   6.10016508
_cell_length_b   6.84144968
_cell_length_c   11.31314717
_cell_angle_alpha   90.02566211
_cell_angle_beta   89.99549529
_cell_angle_gamma   89.99967172
_symmetry_Int_Tables_number   1
_chemical_formula_structural   Mg(BiO2)2
_chemical_formula_sum   'Mg4 Bi8 O16'
_cell_volume   472.14252348
_cell_formula_units_Z   4
loop_
 _symmetry_equiv_pos_site_id
 _symmetry_equiv_pos_as_xyz
  1  'x, y, z'
loop_
 _atom_site_type_symbol
 _atom_site_label
 _atom_site_symmetry_multiplicity
 _atom_site_fract_x
 _atom_site_fract_y
 _atom_site_fract_z
 _atom_site_occupancy
  Mg  Mg0  1  0.859968  0.250013  0.750017  1
  Mg  Mg1  1  0.140037  0.749983  0.249989  1
  Mg  Mg2  1  0.534516  0.249990  0.250014  1
  Mg  Mg3  1  0.465490  0.750009  0.749979  1
  Bi  Bi4  1  0.506079  0.749983  0.459043  1
  Bi  Bi5  1  0.506087  0.750022  0.040942  1
  Bi  Bi6  1  0.493909  0.250016  0.540958  1
  Bi  Bi7  1  0.493916  0.249984  0.959061  1
  Bi  Bi8  1  0.999994  0.500001  0.500001  1
  Bi  Bi9  1  0.000001  0.000002  0.999999  1
  Bi  Bi10  1  0.999995  0.999997  0.499999  1
  Bi  Bi11  1  0.000002  0.500000  0.999997  1
  O  O12  1  0.902064  0.749920  0.374690  1
  O  O13  1  0.902044  0.750082  0.125310  1
  O  O14  1  0.097927  0.250082  0.625309  1
  O  O15  1  0.097977  0.249916  0.874688  1
  O  O16  1  0.249401  0.750034  0.603855  1
  O  O17  1  0.249437  0.749964  0.896134  1
  O  O18  1  0.750581  0.249966  0.396146  1
  O  O19  1  0.750581  0.250031  0.103863  1
  O  O20  1  0.677603  0.487308  0.628888  1
  O  O21  1  0.677653  0.012731  0.871114  1
  O  O22  1  0.322271  0.987065  0.371085  1
  O  O23  1  0.322247  0.512976  0.128921  1
  O  O24  1  0.322370  0.512705  0.371114  1
  O  O25  1  0.322362  0.987277  0.128887  1
  O  O26  1  0.677704  0.012928  0.628919  1
  O  O27  1  0.677778  0.487015  0.871077  1
