# generated using pymatgen
data_CoSb2O7
_symmetry_space_group_name_H-M   'P 1'
_cell_length_a   7.71940985
_cell_length_b   10.62705460
_cell_length_c   14.92614157
_cell_angle_alpha   90.00000000
_cell_angle_beta   90.00000000
_cell_angle_gamma   111.02547346
_symmetry_Int_Tables_number   1
_chemical_formula_structural   CoSb2O7
_chemical_formula_sum   'Co8 Sb16 O56'
_cell_volume   1142.93659388
_cell_formula_units_Z   8
loop_
 _symmetry_equiv_pos_site_id
 _symmetry_equiv_pos_as_xyz
  1  'x, y, z'
loop_
 _atom_site_type_symbol
 _atom_site_label
 _atom_site_symmetry_multiplicity
 _atom_site_fract_x
 _atom_site_fract_y
 _atom_site_fract_z
 _atom_site_occupancy
  Co  Co0  1  0.648274  0.074608  0.655539  1
  Co  Co1  1  0.351726  0.425392  0.155539  1
  Co  Co2  1  0.351726  0.925392  0.344461  1
  Co  Co3  1  0.648274  0.574608  0.844461  1
  Co  Co4  1  0.995090  0.269571  0.778835  1
  Co  Co5  1  0.004910  0.230429  0.278835  1
  Co  Co6  1  0.004910  0.730429  0.221165  1
  Co  Co7  1  0.995090  0.769571  0.721165  1
  Sb  Sb8  1  0.815451  0.947717  0.837135  1
  Sb  Sb9  1  0.494803  0.748907  0.000193  1
  Sb  Sb10  1  0.494803  0.248907  0.499807  1
  Sb  Sb11  1  0.505197  0.251093  0.999807  1
  Sb  Sb12  1  0.485278  0.752753  0.709972  1
  Sb  Sb13  1  0.514722  0.747247  0.209972  1
  Sb  Sb14  1  0.514722  0.247247  0.290028  1
  Sb  Sb15  1  0.485278  0.252753  0.790028  1
  Sb  Sb16  1  0.505197  0.751093  0.500193  1
  Sb  Sb17  1  0.850445  0.424516  0.163505  1
  Sb  Sb18  1  0.149555  0.075484  0.663505  1
  Sb  Sb19  1  0.149555  0.575484  0.836495  1
  Sb  Sb20  1  0.184549  0.552283  0.337135  1
  Sb  Sb21  1  0.815451  0.447717  0.662865  1
  Sb  Sb22  1  0.184549  0.052283  0.162865  1
  Sb  Sb23  1  0.850445  0.924516  0.336495  1
  O  O24  1  0.742825  0.897359  0.957386  1
  O  O25  1  0.257175  0.602641  0.457386  1
  O  O26  1  0.257175  0.102641  0.042614  1
  O  O27  1  0.742825  0.397359  0.542614  1
  O  O28  1  0.052030  0.942506  0.786709  1
  O  O29  1  0.947970  0.557494  0.286709  1
  O  O30  1  0.947970  0.057494  0.213291  1
  O  O31  1  0.052030  0.442506  0.713291  1
  O  O32  1  0.910838  0.139796  0.863114  1
  O  O33  1  0.089162  0.360204  0.363114  1
  O  O34  1  0.089162  0.860204  0.136886  1
  O  O35  1  0.910838  0.639796  0.636886  1
  O  O36  1  0.594082  0.905124  0.298084  1
  O  O37  1  0.405918  0.594876  0.798084  1
  O  O38  1  0.405918  0.094876  0.701916  1
  O  O39  1  0.594082  0.405124  0.201916  1
  O  O40  1  0.944378  0.118505  0.372224  1
  O  O41  1  0.055622  0.381495  0.872224  1
  O  O42  1  0.055622  0.881495  0.627776  1
  O  O43  1  0.944378  0.618505  0.127776  1
  O  O44  1  0.076922  0.880428  0.320736  1
  O  O45  1  0.364561  0.858532  0.450465  1
  O  O46  1  0.923078  0.619572  0.820736  1
  O  O47  1  0.076922  0.380428  0.179264  1
  O  O48  1  0.641725  0.673218  0.423454  1
  O  O49  1  0.358275  0.826782  0.923454  1
  O  O50  1  0.358275  0.326782  0.576546  1
  O  O51  1  0.641725  0.173218  0.076546  1
  O  O52  1  0.776737  0.889695  0.463281  1
  O  O53  1  0.223263  0.610305  0.963281  1
  O  O54  1  0.223263  0.110305  0.536719  1
  O  O55  1  0.776737  0.389695  0.036719  1
  O  O56  1  0.454952  0.129970  0.892091  1
  O  O57  1  0.545048  0.370030  0.392091  1
  O  O58  1  0.545048  0.870030  0.107909  1
  O  O59  1  0.454952  0.629970  0.607909  1
  O  O60  1  0.731820  0.256743  0.733469  1
  O  O61  1  0.268180  0.243257  0.233469  1
  O  O62  1  0.268180  0.743257  0.266531  1
  O  O63  1  0.731820  0.756743  0.766531  1
  O  O64  1  0.595807  0.443811  0.731704  1
  O  O65  1  0.404193  0.056189  0.231704  1
  O  O66  1  0.404193  0.556189  0.268296  1
  O  O67  1  0.595807  0.943811  0.768296  1
  O  O68  1  0.229455  0.238940  0.752964  1
  O  O69  1  0.770545  0.261060  0.252964  1
  O  O70  1  0.770545  0.761060  0.247036  1
  O  O71  1  0.229455  0.738940  0.747036  1
  O  O72  1  0.547758  0.381194  0.892963  1
  O  O73  1  0.452242  0.118806  0.392963  1
  O  O74  1  0.452242  0.618806  0.107037  1
  O  O75  1  0.547758  0.881194  0.607037  1
  O  O76  1  0.364561  0.358532  0.049535  1
  O  O77  1  0.635439  0.141468  0.549535  1
  O  O78  1  0.635439  0.641468  0.950465  1
  O  O79  1  0.923078  0.119572  0.679264  1
