# generated using pymatgen
data_Mg3Fe4(MoO4)6
_symmetry_space_group_name_H-M   'P 1'
_cell_length_a   7.03099547
_cell_length_b   8.46740235
_cell_length_c   10.34573660
_cell_angle_alpha   104.38549626
_cell_angle_beta   104.88365182
_cell_angle_gamma   101.51916180
_symmetry_Int_Tables_number   1
_chemical_formula_structural   Mg3Fe4(MoO4)6
_chemical_formula_sum   'Mg3 Fe4 Mo6 O24'
_cell_volume   553.28323896
_cell_formula_units_Z   1
loop_
 _symmetry_equiv_pos_site_id
 _symmetry_equiv_pos_as_xyz
  1  'x, y, z'
loop_
 _atom_site_type_symbol
 _atom_site_label
 _atom_site_symmetry_multiplicity
 _atom_site_fract_x
 _atom_site_fract_y
 _atom_site_fract_z
 _atom_site_occupancy
  Mg  Mg0  1  -0.000000  0.500000  0.500000  1
  Mg  Mg1  1  0.271633  0.272853  0.786882  1
  Mg  Mg2  1  0.728367  0.727147  0.213118  1
  Fe  Fe3  1  0.379325  0.956714  0.605251  1
  Fe  Fe4  1  0.620675  0.043286  0.394749  1
  Fe  Fe5  1  0.045637  0.198103  0.010261  1
  Fe  Fe6  1  0.954363  0.801897  0.989739  1
  Mo  Mo7  1  0.780205  0.346638  0.731865  1
  Mo  Mo8  1  0.219795  0.653362  0.268135  1
  Mo  Mo9  1  0.896878  0.900106  0.665517  1
  Mo  Mo10  1  0.405164  0.721385  0.877229  1
  Mo  Mo11  1  0.103122  0.099894  0.334483  1
  Mo  Mo12  1  0.594836  0.278615  0.122771  1
  O  O13  1  0.889641  0.688502  0.567838  1
  O  O14  1  0.110359  0.311498  0.432162  1
  O  O15  1  0.284500  0.503548  0.763121  1
  O  O16  1  0.715500  0.496452  0.236879  1
  O  O17  1  0.795049  0.326551  0.556216  1
  O  O18  1  0.204951  0.673449  0.443784  1
  O  O19  1  0.665573  0.968321  0.581703  1
  O  O20  1  0.334427  0.031679  0.418297  1
  O  O21  1  0.645761  0.740628  0.012428  1
  O  O22  1  0.354239  0.259372  0.987572  1
  O  O23  1  0.470394  0.759008  0.266670  1
  O  O24  1  0.529606  0.240992  0.733330  1
  O  O25  1  0.143939  0.034990  0.657990  1
  O  O26  1  0.071225  0.046976  0.142298  1
  O  O27  1  0.928775  0.953024  0.857702  1
  O  O28  1  0.559561  0.150565  0.231631  1
  O  O29  1  0.440439  0.849435  0.768369  1
  O  O30  1  0.171743  0.437299  0.175333  1
  O  O31  1  0.828257  0.562701  0.824667  1
  O  O32  1  0.987579  0.275637  0.825344  1
  O  O33  1  0.012421  0.724363  0.174656  1
  O  O34  1  0.236651  0.783554  0.966192  1
  O  O35  1  0.763349  0.216446  0.033808  1
  O  O36  1  0.856061  0.965010  0.342010  1
