# generated using pymatgen
data_MgV2O4
_symmetry_space_group_name_H-M   'P 1'
_cell_length_a   6.05611722
_cell_length_b   6.06407580
_cell_length_c   18.19350848
_cell_angle_alpha   59.98348690
_cell_angle_beta   59.98568104
_cell_angle_gamma   60.07109935
_symmetry_Int_Tables_number   1
_chemical_formula_structural   MgV2O4
_chemical_formula_sum   'Mg6 V12 O24'
_cell_volume   472.59794240
_cell_formula_units_Z   6
loop_
 _symmetry_equiv_pos_site_id
 _symmetry_equiv_pos_as_xyz
  1  'x, y, z'
loop_
 _atom_site_type_symbol
 _atom_site_label
 _atom_site_symmetry_multiplicity
 _atom_site_fract_x
 _atom_site_fract_y
 _atom_site_fract_z
 _atom_site_occupancy
  Mg  Mg0  1  0.120902  0.121626  0.045354  1
  Mg  Mg1  1  0.119980  0.120445  0.379476  1
  Mg  Mg2  1  0.501509  0.497236  0.334999  1
  Mg  Mg3  1  0.125948  0.125995  0.707538  1
  Mg  Mg4  1  0.496810  0.498544  0.002126  1
  Mg  Mg5  1  0.876553  0.876744  0.623112  1
  V  V6  1  0.497116  0.498280  0.166455  1
  V  V7  1  0.497413  0.005190  0.166427  1
  V  V8  1  0.497788  0.499797  0.499527  1
  V  V9  1  0.005687  0.497378  0.166453  1
  V  V10  1  0.499227  0.003136  0.499473  1
  V  V11  1  0.500158  0.502415  0.664463  1
  V  V12  1  0.877578  0.877150  0.289232  1
  V  V13  1  0.500107  0.498683  0.833024  1
  V  V14  1  0.004797  0.500031  0.498601  1
  V  V15  1  0.500079  0.003018  0.832577  1
  V  V16  1  0.003041  0.499390  0.832670  1
  V  V17  1  0.876870  0.876604  0.956681  1
  O  O18  1  0.256422  0.257257  0.088245  1
  O  O19  1  0.256331  0.260810  0.241381  1
  O  O20  1  0.258406  0.722050  0.087708  1
  O  O21  1  0.720501  0.255173  0.089264  1
  O  O22  1  0.254073  0.255270  0.423887  1
  O  O23  1  0.274734  0.746444  0.244750  1
  O  O24  1  0.260583  0.259758  0.574813  1
  O  O25  1  0.742840  0.273579  0.246088  1
  O  O26  1  0.744824  0.739888  0.091071  1
  O  O27  1  0.255122  0.719687  0.422898  1
  O  O28  1  0.721384  0.252935  0.423132  1
  O  O29  1  0.745289  0.744335  0.245500  1
  O  O30  1  0.265197  0.254511  0.753296  1
  O  O31  1  0.278854  0.742314  0.579564  1
  O  O32  1  0.739410  0.281442  0.580339  1
  O  O33  1  0.257641  0.262190  0.906754  1
  O  O34  1  0.743270  0.743939  0.421553  1
  O  O35  1  0.257789  0.720109  0.752039  1
  O  O36  1  0.720656  0.264336  0.753406  1
  O  O37  1  0.741056  0.739646  0.579112  1
  O  O38  1  0.271405  0.742812  0.911649  1
  O  O39  1  0.749946  0.270808  0.912769  1
  O  O40  1  0.741433  0.737383  0.760640  1
  O  O41  1  0.741272  0.751662  0.911955  1
