# generated using pymatgen
data_Nb2TeO8
_symmetry_space_group_name_H-M   'P 1'
_cell_length_a   5.25864368
_cell_length_b   6.19551742
_cell_length_c   10.48121599
_cell_angle_alpha   107.04791176
_cell_angle_beta   87.00138879
_cell_angle_gamma   90.01830801
_symmetry_Int_Tables_number   1
_chemical_formula_structural   Nb2TeO8
_chemical_formula_sum   'Nb4 Te2 O16'
_cell_volume   325.98630045
_cell_formula_units_Z   2
loop_
 _symmetry_equiv_pos_site_id
 _symmetry_equiv_pos_as_xyz
  1  'x, y, z'
loop_
 _atom_site_type_symbol
 _atom_site_label
 _atom_site_symmetry_multiplicity
 _atom_site_fract_x
 _atom_site_fract_y
 _atom_site_fract_z
 _atom_site_occupancy
  Nb  Nb0  1  0.770099  0.305718  0.263988  1
  Nb  Nb1  1  0.730674  0.043969  0.734236  1
  Nb  Nb2  1  0.230681  0.695379  0.734319  1
  Nb  Nb3  1  0.270021  0.957051  0.264187  1
  Te  Te4  1  0.750478  0.646291  0.999182  1
  Te  Te5  1  0.250459  0.354522  0.999205  1
  O  O6  1  0.085997  0.210770  0.113370  1
  O  O7  1  0.414656  0.097468  0.884914  1
  O  O8  1  0.914857  0.790002  0.884966  1
  O  O9  1  0.586351  0.903274  0.113572  1
  O  O10  1  0.568227  0.450762  0.104158  1
  O  O11  1  0.932610  0.346672  0.894215  1
  O  O12  1  0.432701  0.550013  0.894221  1
  O  O13  1  0.068347  0.654190  0.104169  1
  O  O14  1  0.434194  0.246457  0.323333  1
  O  O15  1  0.066570  0.925666  0.674984  1
  O  O16  1  0.357568  0.808321  0.371261  1
  O  O17  1  0.142925  0.439781  0.627172  1
  O  O18  1  0.642944  0.193071  0.627360  1
  O  O19  1  0.857506  0.561632  0.370813  1
  O  O20  1  0.934334  0.075732  0.323559  1
  O  O21  1  0.566618  0.754561  0.674945  1
