# generated using pymatgen
data_TiV(PO4)3
_symmetry_space_group_name_H-M   'P 1'
_cell_length_a   8.74400257
_cell_length_b   8.74400213
_cell_length_c   8.74400279
_cell_angle_alpha   58.83951941
_cell_angle_beta   58.83952264
_cell_angle_gamma   58.83952080
_symmetry_Int_Tables_number   1
_chemical_formula_structural   TiV(PO4)3
_chemical_formula_sum   'Ti2 V2 P6 O24'
_cell_volume   460.20748898
_cell_formula_units_Z   2
loop_
 _symmetry_equiv_pos_site_id
 _symmetry_equiv_pos_as_xyz
  1  'x, y, z'
loop_
 _atom_site_type_symbol
 _atom_site_label
 _atom_site_symmetry_multiplicity
 _atom_site_fract_x
 _atom_site_fract_y
 _atom_site_fract_z
 _atom_site_occupancy
  Ti  Ti0  1  0.138350  0.138350  0.138350  1
  Ti  Ti1  1  0.638350  0.638350  0.638350  1
  V  V2  1  0.361133  0.361133  0.361133  1
  V  V3  1  0.861133  0.861133  0.861133  1
  P  P4  1  0.033289  0.471579  0.745367  1
  P  P5  1  0.471579  0.745367  0.033289  1
  P  P6  1  0.745367  0.033289  0.471579  1
  P  P7  1  0.245367  0.971579  0.533289  1
  P  P8  1  0.533289  0.245367  0.971579  1
  P  P9  1  0.971579  0.533289  0.245367  1
  O  O10  1  0.144890  0.504406  0.276687  1
  O  O11  1  0.276687  0.144890  0.504406  1
  O  O12  1  0.066505  0.288945  0.914314  1
  O  O13  1  0.504406  0.276687  0.144890  1
  O  O14  1  0.004406  0.644890  0.776687  1
  O  O15  1  0.217419  0.444977  0.567834  1
  O  O16  1  0.288945  0.914314  0.066505  1
  O  O17  1  0.444977  0.567834  0.217419  1
  O  O18  1  0.206160  0.002600  0.367287  1
  O  O19  1  0.567834  0.217419  0.444977  1
  O  O20  1  0.067834  0.944977  0.717419  1
  O  O21  1  0.367287  0.206160  0.002600  1
  O  O22  1  0.644890  0.776687  0.004406  1
  O  O23  1  0.914314  0.066505  0.288945  1
  O  O24  1  0.414314  0.788945  0.566505  1
  O  O25  1  0.776687  0.004406  0.644890  1
  O  O26  1  0.566505  0.414314  0.788945  1
  O  O27  1  0.717419  0.067834  0.944977  1
  O  O28  1  0.788945  0.566505  0.414314  1
  O  O29  1  0.002600  0.367287  0.206160  1
  O  O30  1  0.502600  0.706160  0.867287  1
  O  O31  1  0.944977  0.717419  0.067834  1
  O  O32  1  0.706160  0.867287  0.502600  1
  O  O33  1  0.867287  0.502600  0.706160  1
