# generated using pymatgen
data_SbO2
_symmetry_space_group_name_H-M   'P 1'
_cell_length_a   6.30209456
_cell_length_b   7.48059131
_cell_length_c   19.01237208
_cell_angle_alpha   60.20975940
_cell_angle_beta   62.94792310
_cell_angle_gamma   65.23127246
_symmetry_Int_Tables_number   1
_chemical_formula_structural   SbO2
_chemical_formula_sum   'Sb12 O24'
_cell_volume   670.81195567
_cell_formula_units_Z   12
loop_
 _symmetry_equiv_pos_site_id
 _symmetry_equiv_pos_as_xyz
  1  'x, y, z'
loop_
 _atom_site_type_symbol
 _atom_site_label
 _atom_site_symmetry_multiplicity
 _atom_site_fract_x
 _atom_site_fract_y
 _atom_site_fract_z
 _atom_site_occupancy
  Sb  Sb0  1  0.474642  0.491546  0.184344  1
  Sb  Sb1  1  0.431371  0.111999  0.167024  1
  Sb  Sb2  1  0.510029  0.494417  0.493983  1
  Sb  Sb3  1  0.962807  0.491926  0.184438  1
  Sb  Sb4  1  0.486768  0.103666  0.480124  1
  Sb  Sb5  1  0.545814  0.478077  0.657425  1
  Sb  Sb6  1  0.926684  0.812497  0.279376  1
  Sb  Sb7  1  0.449523  0.619018  0.823002  1
  Sb  Sb8  1  0.021769  0.483254  0.496799  1
  Sb  Sb9  1  0.518812  0.028433  0.820688  1
  Sb  Sb10  1  0.044836  0.411311  0.845872  1
  Sb  Sb11  1  0.875019  0.934177  0.947803  1
  O  O12  1  0.164330  0.306287  0.115705  1
  O  O13  1  0.236496  0.275698  0.249795  1
  O  O14  1  0.217676  0.662841  0.123148  1
  O  O15  1  0.651794  0.299606  0.117852  1
  O  O16  1  0.202820  0.288760  0.435798  1
  O  O17  1  0.270443  0.655350  0.261511  1
  O  O18  1  0.285054  0.275377  0.562230  1
  O  O19  1  0.705870  0.322437  0.255450  1
  O  O20  1  0.726079  0.668829  0.113914  1
  O  O21  1  0.250166  0.672476  0.437755  1
  O  O22  1  0.693308  0.302451  0.431672  1
  O  O23  1  0.786019  0.662286  0.259079  1
  O  O24  1  0.275568  0.308204  0.746214  1
  O  O25  1  0.347535  0.637350  0.577526  1
  O  O26  1  0.737733  0.316419  0.571524  1
  O  O27  1  0.273143  0.156314  0.905806  1
  O  O28  1  0.790322  0.656031  0.420943  1
  O  O29  1  0.400916  0.683556  0.714678  1
  O  O30  1  0.723460  0.232971  0.738057  1
  O  O31  1  0.821363  0.618456  0.581270  1
  O  O32  1  0.233758  0.873706  0.862129  1
  O  O33  1  0.802088  0.255593  0.881861  1
  O  O34  1  0.680481  0.803282  0.771015  1
  O  O35  1  0.731744  0.861647  0.894604  1
