# generated using pymatgen
data_Ti3P3O13
_symmetry_space_group_name_H-M   'P 1'
_cell_length_a   6.37787158
_cell_length_b   7.68142567
_cell_length_c   10.46725863
_cell_angle_alpha   98.47958412
_cell_angle_beta   90.00000000
_cell_angle_gamma   90.00000000
_symmetry_Int_Tables_number   1
_chemical_formula_structural   Ti3P3O13
_chemical_formula_sum   'Ti6 P6 O26'
_cell_volume   507.19727910
_cell_formula_units_Z   2
loop_
 _symmetry_equiv_pos_site_id
 _symmetry_equiv_pos_as_xyz
  1  'x, y, z'
loop_
 _atom_site_type_symbol
 _atom_site_label
 _atom_site_symmetry_multiplicity
 _atom_site_fract_x
 _atom_site_fract_y
 _atom_site_fract_z
 _atom_site_occupancy
  Ti  Ti0  1  0.250000  0.353477  0.189649  1
  Ti  Ti1  1  0.750000  0.646523  0.810351  1
  Ti  Ti2  1  0.250000  0.790768  0.441522  1
  Ti  Ti3  1  0.500000  0.000000  -0.000000  1
  Ti  Ti4  1  0.750000  0.209232  0.558478  1
  Ti  Ti5  1  0.000000  0.000000  -0.000000  1
  P  P6  1  0.250000  0.220631  0.480546  1
  P  P7  1  0.750000  0.779369  0.519454  1
  P  P8  1  0.250000  0.744023  0.765192  1
  P  P9  1  0.750000  0.255977  0.234808  1
  P  P10  1  0.750000  0.304002  0.879526  1
  P  P11  1  0.250000  0.695998  0.120474  1
  O  O12  1  0.750000  0.332412  0.734177  1
  O  O13  1  0.551567  0.749387  0.435500  1
  O  O14  1  0.250000  0.795503  0.627100  1
  O  O15  1  0.552882  0.203470  0.912125  1
  O  O16  1  0.750000  0.658126  0.622405  1
  O  O17  1  0.750000  0.868539  0.901602  1
  O  O18  1  0.250000  0.341874  0.377595  1
  O  O19  1  0.052882  0.796530  0.087875  1
  O  O20  1  0.250000  0.021584  0.413522  1
  O  O21  1  0.750000  0.978416  0.586478  1
  O  O22  1  0.053813  0.638352  0.788378  1
  O  O23  1  0.250000  0.131461  0.098398  1
  O  O24  1  0.553813  0.361648  0.211622  1
  O  O25  1  0.750000  0.498776  0.945961  1
  O  O26  1  0.750000  0.204497  0.372900  1
  O  O27  1  0.447118  0.796530  0.087875  1
  O  O28  1  0.948433  0.749387  0.435500  1
  O  O29  1  0.448433  0.250613  0.564500  1
  O  O30  1  0.446187  0.638352  0.788378  1
  O  O31  1  0.250000  0.667588  0.265823  1
  O  O32  1  0.750000  0.082938  0.131015  1
  O  O33  1  0.250000  0.917062  0.868985  1
  O  O34  1  0.946187  0.361648  0.211622  1
  O  O35  1  0.947118  0.203470  0.912125  1
  O  O36  1  0.051567  0.250613  0.564500  1
  O  O37  1  0.250000  0.501224  0.054039  1
