# generated using pymatgen
data_CuSbO4
_symmetry_space_group_name_H-M   'P 1'
_cell_length_a   6.85649947
_cell_length_b   9.04538729
_cell_length_c   11.03420748
_cell_angle_alpha   90.00000000
_cell_angle_beta   91.34083078
_cell_angle_gamma   90.00000000
_symmetry_Int_Tables_number   1
_chemical_formula_structural   CuSbO4
_chemical_formula_sum   'Cu8 Sb8 O32'
_cell_volume   684.15078264
_cell_formula_units_Z   8
loop_
 _symmetry_equiv_pos_site_id
 _symmetry_equiv_pos_as_xyz
  1  'x, y, z'
loop_
 _atom_site_type_symbol
 _atom_site_label
 _atom_site_symmetry_multiplicity
 _atom_site_fract_x
 _atom_site_fract_y
 _atom_site_fract_z
 _atom_site_occupancy
  Cu  Cu0  1  0.838544  0.115184  0.890995  1
  Cu  Cu1  1  0.381430  0.037948  0.626621  1
  Cu  Cu2  1  0.618570  0.962052  0.373379  1
  Cu  Cu3  1  0.161456  0.884816  0.109005  1
  Cu  Cu4  1  0.838544  0.384816  0.390995  1
  Cu  Cu5  1  0.381430  0.462052  0.126621  1
  Cu  Cu6  1  0.161456  0.615184  0.609005  1
  Cu  Cu7  1  0.618570  0.537948  0.873379  1
  Sb  Sb8  1  0.109306  0.421356  0.880259  1
  Sb  Sb9  1  0.109306  0.078644  0.380259  1
  Sb  Sb10  1  0.578362  0.123545  0.105278  1
  Sb  Sb11  1  0.890694  0.921356  0.619741  1
  Sb  Sb12  1  0.421638  0.876455  0.894722  1
  Sb  Sb13  1  0.421638  0.623545  0.394722  1
  Sb  Sb14  1  0.578362  0.376455  0.605278  1
  Sb  Sb15  1  0.890694  0.578644  0.119741  1
  O  O16  1  0.076132  0.290736  0.365069  1
  O  O17  1  0.639269  0.015206  0.584550  1
  O  O18  1  0.171838  0.690483  0.455070  1
  O  O19  1  0.828162  0.190483  0.044930  1
  O  O20  1  0.076132  0.209264  0.865069  1
  O  O21  1  0.923868  0.709264  0.634931  1
  O  O22  1  0.111805  0.056026  0.577480  1
  O  O23  1  0.429833  0.930502  0.088592  1
  O  O24  1  0.429833  0.569498  0.588592  1
  O  O25  1  0.339029  0.874632  0.723836  1
  O  O26  1  0.660971  0.374632  0.776164  1
  O  O27  1  0.570167  0.069498  0.911408  1
  O  O28  1  0.888195  0.943974  0.422520  1
  O  O29  1  0.889559  0.540224  0.291420  1
  O  O30  1  0.369145  0.239676  0.597136  1
  O  O31  1  0.369145  0.260324  0.097136  1
  O  O32  1  0.110441  0.040224  0.208580  1
  O  O33  1  0.570167  0.430502  0.411408  1
  O  O34  1  0.110441  0.459776  0.708580  1
  O  O35  1  0.828162  0.309517  0.544930  1
  O  O36  1  0.639269  0.484794  0.084550  1
  O  O37  1  0.660971  0.125368  0.276164  1
  O  O38  1  0.923868  0.790736  0.134931  1
  O  O39  1  0.111805  0.443974  0.077480  1
  O  O40  1  0.171838  0.809517  0.955070  1
  O  O41  1  0.630855  0.739676  0.902864  1
  O  O42  1  0.360731  0.984794  0.415450  1
  O  O43  1  0.360731  0.515206  0.915450  1
  O  O44  1  0.888195  0.556026  0.922520  1
  O  O45  1  0.630855  0.760324  0.402864  1
  O  O46  1  0.339029  0.625368  0.223836  1
  O  O47  1  0.889559  0.959776  0.791420  1
