# generated using pymatgen
data_VPO4
_symmetry_space_group_name_H-M   'P 1'
_cell_length_a   4.76302317
_cell_length_b   4.76302316
_cell_length_c   6.48269025
_cell_angle_alpha   90.00000000
_cell_angle_beta   90.00000000
_cell_angle_gamma   67.34252276
_symmetry_Int_Tables_number   1
_chemical_formula_structural   VPO4
_chemical_formula_sum   'V2 P2 O8'
_cell_volume   135.71868797
_cell_formula_units_Z   2
loop_
 _symmetry_equiv_pos_site_id
 _symmetry_equiv_pos_as_xyz
  1  'x, y, z'
loop_
 _atom_site_type_symbol
 _atom_site_label
 _atom_site_symmetry_multiplicity
 _atom_site_fract_x
 _atom_site_fract_y
 _atom_site_fract_z
 _atom_site_occupancy
  O  O0  1  0.243569  0.243569  0.052176  1
  O  O1  1  0.243569  0.243569  0.447824  1
  O  O2  1  0.219812  0.707556  0.250000  1
  O  O3  1  0.292444  0.780188  0.750000  1
  O  O4  1  0.707555  0.219812  0.250000  1
  O  O5  1  0.780189  0.292444  0.750000  1
  O  O6  1  0.756430  0.756432  0.947824  1
  O  O7  1  0.756430  0.756432  0.552176  1
  P  P8  1  0.348856  0.348856  0.250000  1
  P  P9  1  0.651144  0.651142  0.750000  1
  V  V10  1  0.000000  0.000000  0.000000  1
  V  V11  1  0.000000  0.000000  0.500000  1
