# generated using pymatgen
data_Mg(BiO2)2
_symmetry_space_group_name_H-M   'P 1'
_cell_length_a   6.89075067
_cell_length_b   6.89074162
_cell_length_c   20.25302110
_cell_angle_alpha   59.31245386
_cell_angle_beta   59.31213724
_cell_angle_gamma   59.99824712
_symmetry_Int_Tables_number   1
_chemical_formula_structural   Mg(BiO2)2
_chemical_formula_sum   'Mg6 Bi12 O24'
_cell_volume   672.83450991
_cell_formula_units_Z   6
loop_
 _symmetry_equiv_pos_site_id
 _symmetry_equiv_pos_as_xyz
  1  'x, y, z'
loop_
 _atom_site_type_symbol
 _atom_site_label
 _atom_site_symmetry_multiplicity
 _atom_site_fract_x
 _atom_site_fract_y
 _atom_site_fract_z
 _atom_site_occupancy
  Mg  Mg0  1  0.124938  0.124929  0.041766  1
  Mg  Mg1  1  0.122408  0.122413  0.377607  1
  Mg  Mg2  1  0.501324  0.501335  0.331985  1
  Mg  Mg3  1  0.125777  0.125780  0.707530  1
  Mg  Mg4  1  0.497828  0.497829  0.002149  1
  Mg  Mg5  1  0.874566  0.874554  0.625463  1
  Bi  Bi6  1  0.498623  0.498621  0.165519  1
  Bi  Bi7  1  0.498603  0.006086  0.165578  1
  Bi  Bi8  1  0.499875  0.499864  0.496315  1
  Bi  Bi9  1  0.006082  0.498606  0.165578  1
  Bi  Bi10  1  0.499847  0.011320  0.496342  1
  Bi  Bi11  1  0.501777  0.501791  0.664895  1
  Bi  Bi12  1  0.884385  0.884394  0.282287  1
  Bi  Bi13  1  0.500794  0.500798  0.833978  1
  Bi  Bi14  1  0.011315  0.499845  0.496345  1
  Bi  Bi15  1  0.500797  0.996394  0.833954  1
  Bi  Bi16  1  0.996390  0.500796  0.833956  1
  Bi  Bi17  1  0.882927  0.882926  0.950356  1
  O  O18  1  0.257187  0.257181  0.081040  1
  O  O19  1  0.248292  0.248288  0.251700  1
  O  O20  1  0.257204  0.742557  0.081044  1
  O  O21  1  0.742552  0.257218  0.081047  1
  O  O22  1  0.263629  0.263605  0.412340  1
  O  O23  1  0.288551  0.723067  0.255148  1
  O  O24  1  0.253697  0.253707  0.579641  1
  O  O25  1  0.723071  0.288546  0.255143  1
  O  O26  1  0.750344  0.750327  0.082975  1
  O  O27  1  0.263590  0.735797  0.412345  1
  O  O28  1  0.735809  0.263599  0.412335  1
  O  O29  1  0.722976  0.722984  0.255163  1
  O  O30  1  0.241486  0.241470  0.752660  1
  O  O31  1  0.247178  0.748992  0.584993  1
  O  O32  1  0.748994  0.247173  0.584994  1
  O  O33  1  0.248694  0.248701  0.918014  1
  O  O34  1  0.752575  0.752559  0.414090  1
  O  O35  1  0.241487  0.758978  0.752664  1
  O  O36  1  0.758965  0.241487  0.752665  1
  O  O37  1  0.748882  0.748900  0.585032  1
  O  O38  1  0.288662  0.719487  0.924111  1
  O  O39  1  0.719484  0.288688  0.924106  1
  O  O40  1  0.748983  0.748999  0.751038  1
  O  O41  1  0.719449  0.719409  0.924110  1
