# generated using pymatgen
data_MgNiP2O7
_symmetry_space_group_name_H-M   'P 1'
_cell_length_a   7.01039834
_cell_length_b   8.38002651
_cell_length_c   9.03589014
_cell_angle_alpha   90.00000000
_cell_angle_beta   112.00510232
_cell_angle_gamma   90.00000000
_symmetry_Int_Tables_number   1
_chemical_formula_structural   MgNiP2O7
_chemical_formula_sum   'Mg4 Ni4 P8 O28'
_cell_volume   492.16334269
_cell_formula_units_Z   4
loop_
 _symmetry_equiv_pos_site_id
 _symmetry_equiv_pos_as_xyz
  1  'x, y, z'
loop_
 _atom_site_type_symbol
 _atom_site_label
 _atom_site_symmetry_multiplicity
 _atom_site_fract_x
 _atom_site_fract_y
 _atom_site_fract_z
 _atom_site_occupancy
  Mg  Mg0  1  0.124831  0.940773  0.819361  1
  Mg  Mg1  1  0.375169  0.440773  0.680639  1
  Mg  Mg2  1  0.624831  0.559227  0.319361  1
  Mg  Mg3  1  0.875169  0.059227  0.180639  1
  Ni  Ni4  1  0.380171  0.074729  0.610106  1
  Ni  Ni5  1  0.619829  0.925271  0.389894  1
  Ni  Ni6  1  0.119829  0.574729  0.889894  1
  Ni  Ni7  1  0.880171  0.425271  0.110106  1
  P  P8  1  0.180646  0.732929  0.240452  1
  P  P9  1  0.437319  0.227549  0.967914  1
  P  P10  1  0.680646  0.767071  0.740452  1
  P  P11  1  0.937319  0.272451  0.467914  1
  P  P12  1  0.319354  0.232929  0.259548  1
  P  P13  1  0.062681  0.727549  0.532086  1
  P  P14  1  0.562681  0.772451  0.032086  1
  P  P15  1  0.819354  0.267071  0.759548  1
  O  O16  1  0.352273  0.173859  0.100855  1
  O  O17  1  0.573025  0.610090  0.685388  1
  O  O18  1  0.073025  0.889910  0.185388  1
  O  O19  1  0.346298  0.390221  0.897019  1
  O  O20  1  0.647727  0.826141  0.899145  1
  O  O21  1  0.404628  0.095238  0.379854  1
  O  O22  1  0.653702  0.609779  0.102981  1
  O  O23  1  0.362006  0.091394  0.846049  1
  O  O24  1  0.174164  0.265029  0.549027  1
  O  O25  1  0.595372  0.904762  0.620146  1
  O  O26  1  0.904628  0.404762  0.879854  1
  O  O27  1  0.917404  0.760117  0.796824  1
  O  O28  1  0.582596  0.260117  0.703176  1
  O  O29  1  0.852273  0.326141  0.600855  1
  O  O30  1  0.095372  0.595238  0.120146  1
  O  O31  1  0.926975  0.110090  0.814612  1
  O  O32  1  0.082596  0.239883  0.203176  1
  O  O33  1  0.637994  0.908606  0.153951  1
  O  O34  1  0.674164  0.234971  0.049027  1
  O  O35  1  0.325836  0.765029  0.950973  1
  O  O36  1  0.153702  0.890221  0.602981  1
  O  O37  1  0.862006  0.408606  0.346049  1
  O  O38  1  0.137994  0.591394  0.653951  1
  O  O39  1  0.426975  0.389910  0.314612  1
  O  O40  1  0.417404  0.739883  0.296824  1
  O  O41  1  0.846298  0.109779  0.397019  1
  O  O42  1  0.825836  0.734971  0.450973  1
  O  O43  1  0.147727  0.673859  0.399145  1
