# generated using pymatgen
data_FeO2
_symmetry_space_group_name_H-M   'P 1'
_cell_length_a   2.96656391
_cell_length_b   8.77719896
_cell_length_c   10.71807063
_cell_angle_alpha   90.36632202
_cell_angle_beta   90.00001944
_cell_angle_gamma   90.00003029
_symmetry_Int_Tables_number   1
_chemical_formula_structural   FeO2
_chemical_formula_sum   'Fe8 O16'
_cell_volume   279.07272307
_cell_formula_units_Z   8
loop_
 _symmetry_equiv_pos_site_id
 _symmetry_equiv_pos_as_xyz
  1  'x, y, z'
loop_
 _atom_site_type_symbol
 _atom_site_label
 _atom_site_symmetry_multiplicity
 _atom_site_fract_x
 _atom_site_fract_y
 _atom_site_fract_z
 _atom_site_occupancy
  Fe  Fe0  1  0.249999  0.414350  0.103598  1
  Fe  Fe1  1  0.750000  0.085861  0.603331  1
  Fe  Fe2  1  0.250000  0.911266  0.396567  1
  Fe  Fe3  1  0.750000  0.587848  0.896573  1
  Fe  Fe4  1  0.749999  0.551884  0.383481  1
  Fe  Fe5  1  0.250000  0.447762  0.617292  1
  Fe  Fe6  1  0.750000  0.052546  0.118450  1
  Fe  Fe7  1  0.250000  0.949544  0.881610  1
  O  O8  1  0.249999  0.919750  0.070530  1
  O  O9  1  0.750000  0.082914  0.927918  1
  O  O10  1  0.249999  0.418744  0.427837  1
  O  O11  1  0.750000  0.581607  0.573393  1
  O  O12  1  0.250000  0.034533  0.713266  1
  O  O13  1  0.749999  0.961719  0.286223  1
  O  O14  1  0.249999  0.532463  0.787199  1
  O  O15  1  0.749999  0.468854  0.213173  1
  O  O16  1  0.250000  0.619398  0.012376  1
  O  O17  1  0.749999  0.383013  0.987829  1
  O  O18  1  0.250000  0.115035  0.486652  1
  O  O19  1  0.749999  0.880233  0.512941  1
  O  O20  1  0.749999  0.808572  0.853741  1
  O  O21  1  0.250000  0.193253  0.146877  1
  O  O22  1  0.250000  0.692036  0.355964  1
  O  O23  1  0.749999  0.306814  0.643176  1
