# generated using pymatgen
data_MgNi(PO3)4
_symmetry_space_group_name_H-M   'P 1'
_cell_length_a   7.25658671
_cell_length_b   7.25506488
_cell_length_c   9.83292824
_cell_angle_alpha   98.64614696
_cell_angle_beta   110.02773123
_cell_angle_gamma   109.52225361
_symmetry_Int_Tables_number   1
_chemical_formula_structural   MgNi(PO3)4
_chemical_formula_sum   'Mg2 Ni2 P8 O24'
_cell_volume   437.43629720
_cell_formula_units_Z   2
loop_
 _symmetry_equiv_pos_site_id
 _symmetry_equiv_pos_as_xyz
  1  'x, y, z'
loop_
 _atom_site_type_symbol
 _atom_site_label
 _atom_site_symmetry_multiplicity
 _atom_site_fract_x
 _atom_site_fract_y
 _atom_site_fract_z
 _atom_site_occupancy
  Mg  Mg0  1  0.703563  0.952694  0.751263  1
  Mg  Mg1  1  0.299753  0.049466  0.250452  1
  Ni  Ni2  1  0.501103  0.501242  0.499976  1
  Ni  Ni3  1  0.501649  0.000970  0.000298  1
  P  P4  1  0.509954  0.314080  0.803853  1
  P  P5  1  0.011478  0.706930  0.696176  1
  P  P6  1  0.494294  0.687784  0.196186  1
  P  P7  1  0.989803  0.294464  0.304791  1
  P  P8  1  0.770991  0.731204  0.022181  1
  P  P9  1  0.208417  0.745935  0.477098  1
  P  P10  1  0.233905  0.270841  0.978307  1
  P  P11  1  0.791933  0.254690  0.523433  1
  O  O12  1  0.318534  0.316708  0.849871  1
  O  O13  1  0.967903  0.469187  0.650022  1
  O  O14  1  0.685705  0.684768  0.150157  1
  O  O15  1  0.031269  0.531480  0.350894  1
  O  O16  1  0.723159  0.504540  0.932114  1
  O  O17  1  0.075119  0.791585  0.568639  1
  O  O18  1  0.281153  0.497731  0.067492  1
  O  O19  1  0.925617  0.209179  0.432078  1
  O  O20  1  0.459788  0.344733  0.652205  1
  O  O21  1  0.193098  0.809088  0.848307  1
  O  O22  1  0.544267  0.656716  0.347716  1
  O  O23  1  0.809402  0.192334  0.152161  1
  O  O24  1  0.545179  0.123673  0.826069  1
  O  O25  1  0.798832  0.720088  0.673298  1
  O  O26  1  0.459174  0.878378  0.174502  1
  O  O27  1  0.202976  0.282410  0.327870  1
  O  O28  1  0.632192  0.814475  0.917777  1
  O  O29  1  0.397110  0.712622  0.581059  1
  O  O30  1  0.373393  0.188846  0.083476  1
  O  O31  1  0.603418  0.287796  0.418938  1
  O  O32  1  0.007308  0.848712  0.096007  1
  O  O33  1  0.250500  0.906098  0.401286  1
  O  O34  1  0.997737  0.152347  0.904670  1
  O  O35  1  0.749297  0.094321  0.598974  1
