# generated using pymatgen
data_MgV4(CuO4)3
_symmetry_space_group_name_H-M   'P 1'
_cell_length_a   6.37437601
_cell_length_b   6.36864574
_cell_length_c   6.38275469
_cell_angle_alpha   109.00342233
_cell_angle_beta   109.64950608
_cell_angle_gamma   109.73180731
_symmetry_Int_Tables_number   1
_chemical_formula_structural   MgV4(CuO4)3
_chemical_formula_sum   'Mg1 V4 Cu3 O12'
_cell_volume   199.53092283
_cell_formula_units_Z   1
loop_
 _symmetry_equiv_pos_site_id
 _symmetry_equiv_pos_as_xyz
  1  'x, y, z'
loop_
 _atom_site_type_symbol
 _atom_site_label
 _atom_site_symmetry_multiplicity
 _atom_site_fract_x
 _atom_site_fract_y
 _atom_site_fract_z
 _atom_site_occupancy
  Mg  Mg0  1  0.000007  0.000005  0.000007  1
  V  V1  1  0.000006  0.000007  0.500001  1
  V  V2  1  0.000001  0.500003  0.000003  1
  V  V3  1  0.499990  0.499994  0.499992  1
  V  V4  1  0.500001  0.000003  0.000005  1
  Cu  Cu5  1  0.499993  0.499996  0.999996  1
  Cu  Cu6  1  0.000004  0.499995  0.499998  1
  Cu  Cu7  1  0.500000  0.000018  0.500009  1
  O  O8  1  0.825539  0.300725  0.126379  1
  O  O9  1  0.174466  0.699269  0.873622  1
  O  O10  1  0.821861  0.701389  0.523558  1
  O  O11  1  0.293862  0.473856  0.171243  1
  O  O12  1  0.479522  0.180606  0.304074  1
  O  O13  1  0.124418  0.825742  0.304682  1
  O  O14  1  0.696208  0.876027  0.172282  1
  O  O15  1  0.520477  0.819397  0.695919  1
  O  O16  1  0.178148  0.298604  0.476445  1
  O  O17  1  0.706134  0.526143  0.828756  1
  O  O18  1  0.875579  0.174259  0.695316  1
  O  O19  1  0.303783  0.123964  0.827716  1
