# generated using pymatgen
data_Mg(NiO2)2
_symmetry_space_group_name_H-M   'P 1'
_cell_length_a   2.92772753
_cell_length_b   9.28862676
_cell_length_c   9.52908843
_cell_angle_alpha   89.99617094
_cell_angle_beta   89.98542572
_cell_angle_gamma   90.04347609
_symmetry_Int_Tables_number   1
_chemical_formula_structural   Mg(NiO2)2
_chemical_formula_sum   'Mg4 Ni8 O16'
_cell_volume   259.13936293
_cell_formula_units_Z   4
loop_
 _symmetry_equiv_pos_site_id
 _symmetry_equiv_pos_as_xyz
  1  'x, y, z'
loop_
 _atom_site_type_symbol
 _atom_site_label
 _atom_site_symmetry_multiplicity
 _atom_site_fract_x
 _atom_site_fract_y
 _atom_site_fract_z
 _atom_site_occupancy
  Mg  Mg0  1  0.304083  0.749649  0.147021  1
  Mg  Mg1  1  0.303877  0.249766  0.352990  1
  Mg  Mg2  1  0.696409  0.750085  0.647031  1
  Mg  Mg3  1  0.695800  0.250074  0.852876  1
  Ni  Ni4  1  0.775535  0.569944  0.386548  1
  Ni  Ni5  1  0.775983  0.069995  0.113479  1
  Ni  Ni6  1  0.224369  0.069946  0.613488  1
  Ni  Ni7  1  0.775644  0.429988  0.113480  1
  Ni  Ni8  1  0.223690  0.430042  0.613466  1
  Ni  Ni9  1  0.776353  0.930023  0.386456  1
  Ni  Ni10  1  0.224293  0.930076  0.886610  1
  Ni  Ni11  1  0.224158  0.570018  0.886485  1
  O  O12  1  0.223379  0.886410  0.527335  1
  O  O13  1  0.777719  0.113528  0.472590  1
  O  O14  1  0.348740  0.000130  0.250152  1
  O  O15  1  0.776309  0.886507  0.027346  1
  O  O16  1  0.776794  0.613547  0.027329  1
  O  O17  1  0.803395  0.250043  0.204831  1
  O  O18  1  0.223833  0.113578  0.972733  1
  O  O19  1  0.196491  0.250010  0.704776  1
  O  O20  1  0.348131  0.499950  0.250005  1
  O  O21  1  0.651635  0.000111  0.749980  1
  O  O22  1  0.223165  0.613570  0.527319  1
  O  O23  1  0.196868  0.750066  0.795191  1
  O  O24  1  0.803387  0.749938  0.295143  1
  O  O25  1  0.651558  0.500091  0.749942  1
  O  O26  1  0.222905  0.386461  0.972606  1
  O  O27  1  0.775499  0.386452  0.472797  1
