# generated using pymatgen
data_Mg(SbO2)2
_symmetry_space_group_name_H-M   'P 1'
_cell_length_a   7.01787285
_cell_length_b   6.94135636
_cell_length_c   21.39571028
_cell_angle_alpha   57.03131342
_cell_angle_beta   57.51808269
_cell_angle_gamma   54.21303532
_symmetry_Int_Tables_number   1
_chemical_formula_structural   Mg(SbO2)2
_chemical_formula_sum   'Mg6 Sb12 O24'
_cell_volume   671.66826640
_cell_formula_units_Z   6
loop_
 _symmetry_equiv_pos_site_id
 _symmetry_equiv_pos_as_xyz
  1  'x, y, z'
loop_
 _atom_site_type_symbol
 _atom_site_label
 _atom_site_symmetry_multiplicity
 _atom_site_fract_x
 _atom_site_fract_y
 _atom_site_fract_z
 _atom_site_occupancy
  Mg  Mg0  1  0.149370  0.152057  0.038966  1
  Mg  Mg1  1  0.138653  0.076077  0.379293  1
  Mg  Mg2  1  0.454310  0.466725  0.341088  1
  Mg  Mg3  1  0.098374  0.085739  0.705903  1
  Mg  Mg4  1  0.525725  0.541127  0.990612  1
  Mg  Mg5  1  0.797830  0.938420  0.638835  1
  Sb  Sb6  1  0.542198  0.535076  0.126575  1
  Sb  Sb7  1  0.459922  0.977831  0.188796  1
  Sb  Sb8  1  0.612042  0.535048  0.442964  1
  Sb  Sb9  1  0.974191  0.456089  0.193721  1
  Sb  Sb10  1  0.410791  0.001498  0.503740  1
  Sb  Sb11  1  0.371706  0.463385  0.659072  1
  Sb  Sb12  1  0.932494  0.923250  0.243956  1
  Sb  Sb13  1  0.479643  0.516591  0.854253  1
  Sb  Sb14  1  0.937185  0.557266  0.537405  1
  Sb  Sb15  1  0.550674  0.063540  0.817536  1
  Sb  Sb16  1  0.024207  0.546776  0.822693  1
  Sb  Sb17  1  0.859199  0.879815  0.965004  1
  O  O18  1  0.157324  0.157170  0.134646  1
  O  O19  1  0.202944  0.189031  0.264884  1
  O  O20  1  0.346863  0.781915  0.052488  1
  O  O21  1  0.787073  0.358617  0.048396  1
  O  O22  1  0.265254  0.216507  0.417894  1
  O  O23  1  0.263470  0.755978  0.260634  1
  O  O24  1  0.198673  0.208400  0.577094  1
  O  O25  1  0.761850  0.253202  0.263657  1
  O  O26  1  0.730355  0.741286  0.088330  1
  O  O27  1  0.311740  0.693723  0.413060  1
  O  O28  1  0.766151  0.243005  0.411813  1
  O  O29  1  0.666715  0.670985  0.262961  1
  O  O30  1  0.387954  0.150711  0.674930  1
  O  O31  1  0.200899  0.789991  0.578685  1
  O  O32  1  0.730094  0.331101  0.600403  1
  O  O33  1  0.304736  0.288490  0.914669  1
  O  O34  1  0.791630  0.754060  0.361055  1
  O  O35  1  0.217932  0.730624  0.790096  1
  O  O36  1  0.751854  0.232086  0.786363  1
  O  O37  1  0.823072  0.665815  0.622391  1
  O  O38  1  0.235023  0.708929  0.946655  1
  O  O39  1  0.703060  0.249881  0.948908  1
  O  O40  1  0.863052  0.872160  0.736234  1
  O  O41  1  0.713775  0.740020  0.893342  1
