# generated using pymatgen
data_Nb2CrO8
_symmetry_space_group_name_H-M   'P 1'
_cell_length_a   4.97021711
_cell_length_b   6.16728848
_cell_length_c   10.40742535
_cell_angle_alpha   107.16492689
_cell_angle_beta   90.77647762
_cell_angle_gamma   89.92533677
_symmetry_Int_Tables_number   1
_chemical_formula_structural   Nb2CrO8
_chemical_formula_sum   'Nb4 Cr2 O16'
_cell_volume   304.77789264
_cell_formula_units_Z   2
loop_
 _symmetry_equiv_pos_site_id
 _symmetry_equiv_pos_as_xyz
  1  'x, y, z'
loop_
 _atom_site_type_symbol
 _atom_site_label
 _atom_site_symmetry_multiplicity
 _atom_site_fract_x
 _atom_site_fract_y
 _atom_site_fract_z
 _atom_site_occupancy
  Nb  Nb0  1  0.755084  0.323621  0.257002  1
  Nb  Nb1  1  0.745119  0.068745  0.741411  1
  Nb  Nb2  1  0.245760  0.677314  0.741266  1
  Nb  Nb3  1  0.255210  0.932316  0.256973  1
  Cr  Cr4  1  0.750564  0.664529  0.998567  1
  Cr  Cr5  1  0.250492  0.336175  0.999772  1
  O  O6  1  0.097128  0.224843  0.107245  1
  O  O7  1  0.403513  0.118681  0.891009  1
  O  O8  1  0.903811  0.775873  0.891115  1
  O  O9  1  0.597821  0.881987  0.107414  1
  O  O10  1  0.556078  0.444826  0.101584  1
  O  O11  1  0.943449  0.344126  0.897260  1
  O  O12  1  0.444875  0.556016  0.896762  1
  O  O13  1  0.057686  0.656628  0.101153  1
  O  O14  1  0.421440  0.239057  0.312716  1
  O  O15  1  0.078997  0.928329  0.685493  1
  O  O16  1  0.363556  0.805505  0.376191  1
  O  O17  1  0.137062  0.432049  0.622174  1
  O  O18  1  0.637005  0.195974  0.622458  1
  O  O19  1  0.863145  0.569748  0.376059  1
  O  O20  1  0.921769  0.073104  0.313260  1
  O  O21  1  0.579251  0.761856  0.685246  1
