# generated using pymatgen
data_BaMgTi4O8
_symmetry_space_group_name_H-M   'P 1'
_cell_length_a   5.39185169
_cell_length_b   5.39185245
_cell_length_c   7.51218276
_cell_angle_alpha   90.00000000
_cell_angle_beta   90.00000000
_cell_angle_gamma   120.00000027
_symmetry_Int_Tables_number   1
_chemical_formula_structural   BaMgTi4O8
_chemical_formula_sum   'Ba1 Mg1 Ti4 O8'
_cell_volume   189.13535211
_cell_formula_units_Z   1
loop_
 _symmetry_equiv_pos_site_id
 _symmetry_equiv_pos_as_xyz
  1  'x, y, z'
loop_
 _atom_site_type_symbol
 _atom_site_label
 _atom_site_symmetry_multiplicity
 _atom_site_fract_x
 _atom_site_fract_y
 _atom_site_fract_z
 _atom_site_occupancy
  Ba  Ba0  1  -0.000000  0.000000  -0.000000  1
  Mg  Mg1  1  -0.000000  0.000000  0.500000  1
  Ti  Ti2  1  0.333333  0.666667  0.748094  1
  Ti  Ti3  1  0.666667  0.333333  0.748094  1
  Ti  Ti4  1  0.333333  0.666667  0.251906  1
  Ti  Ti5  1  0.666667  0.333333  0.251906  1
  O  O6  1  0.314902  0.314902  0.674102  1
  O  O7  1  0.685098  1.000000  0.674102  1
  O  O8  1  0.000000  0.685098  0.674102  1
  O  O9  1  0.685098  0.685098  0.325898  1
  O  O10  1  1.000000  0.314902  0.325898  1
  O  O11  1  0.314902  0.000000  0.325898  1
  O  O12  1  0.333333  0.666667  -0.000000  1
  O  O13  1  0.666667  0.333333  -0.000000  1
