# generated using pymatgen
data_MgCr2O4
_symmetry_space_group_name_H-M   'P 1'
_cell_length_a   6.03712583
_cell_length_b   5.98606941
_cell_length_c   5.98606916
_cell_angle_alpha   59.99999750
_cell_angle_beta   60.27936960
_cell_angle_gamma   60.27936808
_symmetry_Int_Tables_number   1
_chemical_formula_structural   MgCr2O4
_chemical_formula_sum   'Mg2 Cr4 O8'
_cell_volume   153.61008478
_cell_formula_units_Z   2
loop_
 _symmetry_equiv_pos_site_id
 _symmetry_equiv_pos_as_xyz
  1  'x, y, z'
loop_
 _atom_site_type_symbol
 _atom_site_label
 _atom_site_symmetry_multiplicity
 _atom_site_fract_x
 _atom_site_fract_y
 _atom_site_fract_z
 _atom_site_occupancy
  Mg  Mg0  1  0.990001  0.003333  0.003333  1
  Mg  Mg1  1  0.118454  0.627182  0.627182  1
  Cr  Cr2  1  0.265729  0.244757  0.244757  1
  Cr  Cr3  1  0.628247  0.119590  0.626082  1
  Cr  Cr4  1  0.628247  0.626082  0.119590  1
  Cr  Cr5  1  0.628247  0.626082  0.626082  1
  O  O6  1  0.392710  0.377959  0.377959  1
  O  O7  1  0.392710  0.377959  0.851369  1
  O  O8  1  0.392710  0.851369  0.377959  1
  O  O9  1  0.844337  0.385221  0.385221  1
  O  O10  1  0.404716  0.865095  0.865095  1
  O  O11  1  0.854632  0.407243  0.869062  1
  O  O12  1  0.854632  0.869062  0.407243  1
  O  O13  1  0.854632  0.869062  0.869062  1
