# generated using pymatgen
data_Ti2O3
_symmetry_space_group_name_H-M   'P 1'
_cell_length_a   2.91297770
_cell_length_b   5.11337000
_cell_length_c   16.08926483
_cell_angle_alpha   90.00000000
_cell_angle_beta   90.00000000
_cell_angle_gamma   106.54924838
_symmetry_Int_Tables_number   1
_chemical_formula_structural   Ti2O3
_chemical_formula_sum   'Ti8 O12'
_cell_volume   229.72422411
_cell_formula_units_Z   4
loop_
 _symmetry_equiv_pos_site_id
 _symmetry_equiv_pos_as_xyz
  1  'x, y, z'
loop_
 _atom_site_type_symbol
 _atom_site_label
 _atom_site_symmetry_multiplicity
 _atom_site_fract_x
 _atom_site_fract_y
 _atom_site_fract_z
 _atom_site_occupancy
  Ti  Ti0  1  0.855771  0.711546  0.040584  1
  Ti  Ti1  1  0.144227  0.288453  0.959416  1
  Ti  Ti2  1  0.855771  0.711546  0.459416  1
  Ti  Ti3  1  0.144227  0.288453  0.540584  1
  Ti  Ti4  1  0.395637  0.791273  0.642761  1
  Ti  Ti5  1  0.604363  0.208727  0.357240  1
  Ti  Ti6  1  0.604363  0.208727  0.142760  1
  Ti  Ti7  1  0.395637  0.791273  0.857239  1
  O  O8  1  0.499999  0.000000  0.500000  1
  O  O9  1  0.499999  0.000000  0.000000  1
  O  O10  1  0.029796  0.059591  0.856579  1
  O  O11  1  0.970204  0.940409  0.143422  1
  O  O12  1  0.970204  0.940409  0.356578  1
  O  O13  1  0.029796  0.059591  0.643422  1
  O  O14  1  0.777419  0.554841  0.913404  1
  O  O15  1  0.222580  0.445160  0.086596  1
  O  O16  1  0.222580  0.445160  0.413404  1
  O  O17  1  0.777419  0.554841  0.586596  1
  O  O18  1  0.339002  0.678004  0.750000  1
  O  O19  1  0.660996  0.321995  0.250000  1
