# generated using pymatgen
data_MgCu2(SbO4)2
_symmetry_space_group_name_H-M   'P 1'
_cell_length_a   6.58257879
_cell_length_b   8.71332346
_cell_length_c   12.30505193
_cell_angle_alpha   90.00000000
_cell_angle_beta   91.80980521
_cell_angle_gamma   90.00000000
_symmetry_Int_Tables_number   1
_chemical_formula_structural   MgCu2(SbO4)2
_chemical_formula_sum   'Mg4 Cu8 Sb8 O32'
_cell_volume   705.41819950
_cell_formula_units_Z   4
loop_
 _symmetry_equiv_pos_site_id
 _symmetry_equiv_pos_as_xyz
  1  'x, y, z'
loop_
 _atom_site_type_symbol
 _atom_site_label
 _atom_site_symmetry_multiplicity
 _atom_site_fract_x
 _atom_site_fract_y
 _atom_site_fract_z
 _atom_site_occupancy
  Mg  Mg0  1  0.107583  0.165509  0.050718  1
  Mg  Mg1  1  0.892417  0.834491  0.949282  1
  Mg  Mg2  1  0.892417  0.665509  0.449282  1
  Mg  Mg3  1  0.107583  0.334491  0.550718  1
  Cu  Cu4  1  0.760191  0.179346  0.871056  1
  Cu  Cu5  1  0.378987  0.059392  0.624335  1
  Cu  Cu6  1  0.621013  0.940608  0.375665  1
  Cu  Cu7  1  0.239809  0.820654  0.128944  1
  Cu  Cu8  1  0.760191  0.320654  0.371056  1
  Cu  Cu9  1  0.378987  0.440608  0.124335  1
  Cu  Cu10  1  0.239809  0.679346  0.628944  1
  Cu  Cu11  1  0.621013  0.559392  0.875665  1
  Sb  Sb12  1  0.097377  0.453249  0.842522  1
  Sb  Sb13  1  0.097377  0.046751  0.342522  1
  Sb  Sb14  1  0.607987  0.086060  0.134752  1
  Sb  Sb15  1  0.902623  0.953249  0.657478  1
  Sb  Sb16  1  0.392013  0.913940  0.865248  1
  Sb  Sb17  1  0.392013  0.586060  0.365248  1
  Sb  Sb18  1  0.607987  0.413940  0.634752  1
  Sb  Sb19  1  0.902623  0.546751  0.157478  1
  O  O20  1  0.032987  0.245921  0.398457  1
  O  O21  1  0.655083  0.022448  0.589742  1
  O  O22  1  0.187398  0.574663  0.474605  1
  O  O23  1  0.812602  0.074663  0.025395  1
  O  O24  1  0.032987  0.254079  0.898457  1
  O  O25  1  0.967013  0.754079  0.601543  1
  O  O26  1  0.090879  0.108303  0.612402  1
  O  O27  1  0.514770  0.881182  0.148342  1
  O  O28  1  0.514770  0.618818  0.648342  1
  O  O29  1  0.297248  0.873991  0.714619  1
  O  O30  1  0.702752  0.373991  0.785381  1
  O  O31  1  0.485230  0.118818  0.851658  1
  O  O32  1  0.909121  0.891697  0.387598  1
  O  O33  1  0.877124  0.538716  0.310313  1
  O  O34  1  0.407120  0.274793  0.579599  1
  O  O35  1  0.407120  0.225207  0.079599  1
  O  O36  1  0.122876  0.038716  0.189687  1
  O  O37  1  0.485230  0.381182  0.351658  1
  O  O38  1  0.122876  0.461284  0.689687  1
  O  O39  1  0.812602  0.425337  0.525395  1
  O  O40  1  0.655083  0.477552  0.089742  1
  O  O41  1  0.702752  0.126009  0.285381  1
  O  O42  1  0.967013  0.745921  0.101543  1
  O  O43  1  0.090879  0.391697  0.112402  1
  O  O44  1  0.187398  0.925337  0.974605  1
  O  O45  1  0.592880  0.774793  0.920401  1
  O  O46  1  0.344917  0.977552  0.410258  1
  O  O47  1  0.344917  0.522448  0.910258  1
  O  O48  1  0.909121  0.608303  0.887598  1
  O  O49  1  0.592880  0.725207  0.420401  1
  O  O50  1  0.297248  0.626009  0.214619  1
  O  O51  1  0.877124  0.961284  0.810313  1
