# generated using pymatgen
data_MgCr2O4
_symmetry_space_group_name_H-M   'P 1'
_cell_length_a   6.00359592
_cell_length_b   6.00359592
_cell_length_c   6.00361041
_cell_angle_alpha   119.98050861
_cell_angle_beta   119.98050861
_cell_angle_gamma   90.03362516
_symmetry_Int_Tables_number   1
_chemical_formula_structural   MgCr2O4
_chemical_formula_sum   'Mg2 Cr4 O8'
_cell_volume   153.05544503
_cell_formula_units_Z   2
loop_
 _symmetry_equiv_pos_site_id
 _symmetry_equiv_pos_as_xyz
  1  'x, y, z'
loop_
 _atom_site_type_symbol
 _atom_site_label
 _atom_site_symmetry_multiplicity
 _atom_site_fract_x
 _atom_site_fract_y
 _atom_site_fract_z
 _atom_site_occupancy
  Mg  Mg0  1  0.375000  0.125000  0.250000  1
  Mg  Mg1  1  0.625000  0.875000  0.750000  1
  Cr  Cr2  1  0.000000  0.500000  0.000000  1
  Cr  Cr3  1  0.000000  0.000000  0.500000  1
  Cr  Cr4  1  0.000000  0.500000  0.500000  1
  Cr  Cr5  1  0.500000  0.500000  -0.000000  1
  O  O6  1  0.238883  0.261200  0.522175  1
  O  O7  1  0.239025  0.716708  0.977825  1
  O  O8  1  0.238800  0.261117  0.977825  1
  O  O9  1  0.783292  0.260975  0.522175  1
  O  O10  1  0.761117  0.738800  0.477825  1
  O  O11  1  0.760975  0.283292  0.022175  1
  O  O12  1  0.761200  0.738883  0.022175  1
  O  O13  1  0.216708  0.739025  0.477825  1
