# generated using pymatgen
data_MgCr4O9
_symmetry_space_group_name_H-M   'P 1'
_cell_length_a   4.89026217
_cell_length_b   8.32740236
_cell_length_c   8.32740236
_cell_angle_alpha   90.00000000
_cell_angle_beta   90.00000000
_cell_angle_gamma   90.00000000
_symmetry_Int_Tables_number   1
_chemical_formula_structural   MgCr4O9
_chemical_formula_sum   'Mg2 Cr8 O18'
_cell_volume   339.11831136
_cell_formula_units_Z   2
loop_
 _symmetry_equiv_pos_site_id
 _symmetry_equiv_pos_as_xyz
  1  'x, y, z'
loop_
 _atom_site_type_symbol
 _atom_site_label
 _atom_site_symmetry_multiplicity
 _atom_site_fract_x
 _atom_site_fract_y
 _atom_site_fract_z
 _atom_site_occupancy
  Mg  Mg0  1  0.120149  0.250000  0.250000  1
  Mg  Mg1  1  0.879852  0.750000  0.749999  1
  Cr  Cr2  1  0.615839  0.534591  0.340913  1
  Cr  Cr3  1  0.384161  0.840912  0.465410  1
  Cr  Cr4  1  0.615839  0.340912  0.965410  1
  Cr  Cr5  1  0.384161  0.034590  0.840912  1
  Cr  Cr6  1  0.615839  0.965410  0.159087  1
  Cr  Cr7  1  0.615839  0.159088  0.534591  1
  Cr  Cr8  1  0.384161  0.465410  0.659087  1
  Cr  Cr9  1  0.384161  0.659087  0.034590  1
  O  O10  1  0.499999  0.750000  0.250000  1
  O  O11  1  0.499999  0.250001  0.750000  1
  O  O12  1  0.058586  0.684678  0.971220  1
  O  O13  1  0.058586  0.528781  0.684677  1
  O  O14  1  0.058586  0.971220  0.815323  1
  O  O15  1  0.058586  0.815323  0.528780  1
  O  O16  1  0.941415  0.315323  0.028780  1
  O  O17  1  0.941415  0.471219  0.315323  1
  O  O18  1  0.941415  0.028780  0.184677  1
  O  O19  1  0.941415  0.184677  0.471219  1
  O  O20  1  0.452490  0.042937  0.354841  1
  O  O21  1  0.452490  0.145158  0.042938  1
  O  O22  1  0.452490  0.354841  0.457063  1
  O  O23  1  0.452490  0.457063  0.145159  1
  O  O24  1  0.547509  0.542937  0.854841  1
  O  O25  1  0.547509  0.854841  0.957063  1
  O  O26  1  0.547509  0.645159  0.542937  1
  O  O27  1  0.547509  0.957062  0.645159  1
