# generated using pymatgen
data_Mg(MoO2)2
_symmetry_space_group_name_H-M   'P 1'
_cell_length_a   3.11760518
_cell_length_b   10.31986274
_cell_length_c   10.37958923
_cell_angle_alpha   90.01354136
_cell_angle_beta   89.99772708
_cell_angle_gamma   89.98731552
_symmetry_Int_Tables_number   1
_chemical_formula_structural   Mg(MoO2)2
_chemical_formula_sum   'Mg4 Mo8 O16'
_cell_volume   333.94517941
_cell_formula_units_Z   4
loop_
 _symmetry_equiv_pos_site_id
 _symmetry_equiv_pos_as_xyz
  1  'x, y, z'
loop_
 _atom_site_type_symbol
 _atom_site_label
 _atom_site_symmetry_multiplicity
 _atom_site_fract_x
 _atom_site_fract_y
 _atom_site_fract_z
 _atom_site_occupancy
  Mg  Mg0  1  0.261542  0.749977  0.142313  1
  Mg  Mg1  1  0.261433  0.250187  0.357503  1
  Mg  Mg2  1  0.738570  0.749817  0.642490  1
  Mg  Mg3  1  0.738428  0.250040  0.857677  1
  Mo  Mo4  1  0.752707  0.573627  0.382086  1
  Mo  Mo5  1  0.752761  0.073650  0.117955  1
  Mo  Mo6  1  0.247215  0.073720  0.617943  1
  Mo  Mo7  1  0.752802  0.426414  0.117901  1
  Mo  Mo8  1  0.247262  0.426374  0.617912  1
  Mo  Mo9  1  0.752819  0.926284  0.382061  1
  Mo  Mo10  1  0.247276  0.926349  0.882049  1
  Mo  Mo11  1  0.247177  0.573582  0.882098  1
  O  O12  1  0.253073  0.884312  0.521021  1
  O  O13  1  0.746969  0.115686  0.478985  1
  O  O14  1  0.253096  0.999930  0.249960  1
  O  O15  1  0.747096  0.884260  0.021004  1
  O  O16  1  0.746893  0.615684  0.020968  1
  O  O17  1  0.759008  0.250109  0.227586  1
  O  O18  1  0.252940  0.115732  0.979002  1
  O  O19  1  0.240956  0.250129  0.727681  1
  O  O20  1  0.253056  0.499943  0.250023  1
  O  O21  1  0.746936  0.000075  0.750048  1
  O  O22  1  0.252845  0.615670  0.520982  1
  O  O23  1  0.240991  0.749888  0.772412  1
  O  O24  1  0.759023  0.749875  0.272317  1
  O  O25  1  0.746919  0.500043  0.749981  1
  O  O26  1  0.253084  0.384313  0.979030  1
  O  O27  1  0.747123  0.384332  0.479014  1
