# generated using pymatgen
data_MgNiSnP2O9
_symmetry_space_group_name_H-M   'P 1'
_cell_length_a   6.41811738
_cell_length_b   7.71022716
_cell_length_c   14.35121300
_cell_angle_alpha   90.00001226
_cell_angle_beta   89.94766531
_cell_angle_gamma   90.05863363
_symmetry_Int_Tables_number   1
_chemical_formula_structural   MgNiSnP2O9
_chemical_formula_sum   'Mg4 Ni4 Sn4 P8 O36'
_cell_volume   710.17115829
_cell_formula_units_Z   4
loop_
 _symmetry_equiv_pos_site_id
 _symmetry_equiv_pos_as_xyz
  1  'x, y, z'
loop_
 _atom_site_type_symbol
 _atom_site_label
 _atom_site_symmetry_multiplicity
 _atom_site_fract_x
 _atom_site_fract_y
 _atom_site_fract_z
 _atom_site_occupancy
  Mg  Mg0  1  0.750108  0.966979  0.808504  1
  Mg  Mg1  1  0.749893  0.533002  0.308634  1
  Mg  Mg2  1  0.249887  0.033012  0.191462  1
  Mg  Mg3  1  0.250120  0.466996  0.691393  1
  Ni  Ni4  1  0.500014  0.999991  0.999994  1
  Ni  Ni5  1  0.500004  0.499992  0.500006  1
  Ni  Ni6  1  0.000016  0.500002  0.500012  1
  Ni  Ni7  1  0.999996  0.999994  0.999992  1
  Sn  Sn8  1  0.750018  0.355494  0.882995  1
  Sn  Sn9  1  0.249977  0.644505  0.117002  1
  Sn  Sn10  1  0.250049  0.855449  0.617135  1
  Sn  Sn11  1  0.749951  0.144555  0.382869  1
  P  P12  1  0.250052  0.353287  0.928635  1
  P  P13  1  0.749941  0.646710  0.071360  1
  P  P14  1  0.750251  0.853593  0.571408  1
  P  P15  1  0.249748  0.146411  0.428598  1
  P  P16  1  0.749969  0.376921  0.690115  1
  P  P17  1  0.250035  0.623086  0.309885  1
  P  P18  1  0.249960  0.876822  0.810023  1
  P  P19  1  0.750035  0.123181  0.189977  1
  O  O20  1  0.044855  0.609364  0.366543  1
  O  O21  1  0.544820  0.390623  0.633696  1
  O  O22  1  0.955262  0.109316  0.133372  1
  O  O23  1  0.455002  0.890661  0.866473  1
  O  O24  1  0.955155  0.390638  0.633468  1
  O  O25  1  0.455186  0.609371  0.366303  1
  O  O26  1  0.044725  0.890678  0.866624  1
  O  O27  1  0.544999  0.109334  0.133521  1
  O  O28  1  0.249292  0.324081  0.476383  1
  O  O29  1  0.750720  0.675914  0.523629  1
  O  O30  1  0.749950  0.824316  0.023578  1
  O  O31  1  0.250051  0.175672  0.976410  1
  O  O32  1  0.749878  0.115140  0.933405  1
  O  O33  1  0.250125  0.884850  0.066579  1
  O  O34  1  0.250637  0.615258  0.566417  1
  O  O35  1  0.749389  0.384741  0.433596  1
  O  O36  1  0.749861  0.203805  0.748007  1
  O  O37  1  0.250134  0.796203  0.251991  1
  O  O38  1  0.249655  0.703694  0.752084  1
  O  O39  1  0.750337  0.296313  0.247915  1
  O  O40  1  0.435113  0.124932  0.360117  1
  O  O41  1  0.935172  0.875629  0.639994  1
  O  O42  1  0.564650  0.624564  0.139835  1
  O  O43  1  0.064948  0.375109  0.860221  1
  O  O44  1  0.564888  0.875081  0.639891  1
  O  O45  1  0.064826  0.124388  0.360012  1
  O  O46  1  0.435341  0.375448  0.860158  1
  O  O47  1  0.935046  0.624901  0.139774  1
  O  O48  1  0.749716  0.978911  0.267895  1
  O  O49  1  0.250279  0.021098  0.732107  1
  O  O50  1  0.249437  0.478731  0.231975  1
  O  O51  1  0.750550  0.521275  0.768023  1
  O  O52  1  0.750124  0.002713  0.500437  1
  O  O53  1  0.249864  0.997276  0.499563  1
  O  O54  1  0.250013  0.502347  0.999667  1
  O  O55  1  0.749977  0.497638  0.000336  1
