# generated using pymatgen
data_MgTi3(P2O7)2
_symmetry_space_group_name_H-M   'P 1'
_cell_length_a   7.37116384
_cell_length_b   7.39175826
_cell_length_c   9.67073947
_cell_angle_alpha   90.00000000
_cell_angle_beta   108.31065595
_cell_angle_gamma   90.00000000
_symmetry_Int_Tables_number   1
_chemical_formula_structural   MgTi3(P2O7)2
_chemical_formula_sum   'Mg2 Ti6 P8 O28'
_cell_volume   500.23913469
_cell_formula_units_Z   2
loop_
 _symmetry_equiv_pos_site_id
 _symmetry_equiv_pos_as_xyz
  1  'x, y, z'
loop_
 _atom_site_type_symbol
 _atom_site_label
 _atom_site_symmetry_multiplicity
 _atom_site_fract_x
 _atom_site_fract_y
 _atom_site_fract_z
 _atom_site_occupancy
  Mg  Mg0  1  0.500000  0.000000  -0.000000  1
  Mg  Mg1  1  0.500000  0.500000  0.500000  1
  Ti  Ti2  1  0.173243  0.835594  0.513234  1
  Ti  Ti3  1  0.826757  0.335594  0.986766  1
  Ti  Ti4  1  0.826757  0.164406  0.486766  1
  Ti  Ti5  1  0.173243  0.664406  0.013234  1
  Ti  Ti6  1  -0.000000  0.000000  -0.000000  1
  Ti  Ti7  1  -0.000000  0.500000  0.500000  1
  P  P8  1  0.566807  0.070541  0.697256  1
  P  P9  1  0.433193  0.570541  0.802744  1
  P  P10  1  0.433193  0.929459  0.302744  1
  P  P11  1  0.566807  0.429459  0.197256  1
  P  P12  1  0.857541  0.792860  0.678573  1
  P  P13  1  0.142459  0.292860  0.821427  1
  P  P14  1  0.142459  0.207140  0.321427  1
  P  P15  1  0.857541  0.707140  0.178573  1
  O  O16  1  0.797149  0.612296  0.598332  1
  O  O17  1  0.202851  0.112295  0.901668  1
  O  O18  1  0.202851  0.387704  0.401668  1
  O  O19  1  0.797149  0.887704  0.098332  1
  O  O20  1  0.346448  0.600977  0.634761  1
  O  O21  1  0.653552  0.100977  0.865239  1
  O  O22  1  0.653552  0.399023  0.365239  1
  O  O23  1  0.346448  0.899023  0.134761  1
  O  O24  1  0.623996  0.219436  0.607620  1
  O  O25  1  0.376004  0.719436  0.892380  1
  O  O26  1  0.376004  0.780564  0.392380  1
  O  O27  1  0.623996  0.280564  0.107620  1
  O  O28  1  0.656220  0.882310  0.665629  1
  O  O29  1  0.343780  0.382310  0.834371  1
  O  O30  1  0.343780  0.117690  0.334371  1
  O  O31  1  0.656220  0.617690  0.165629  1
  O  O32  1  0.356963  0.475039  0.155279  1
  O  O33  1  0.643037  0.975039  0.344721  1
  O  O34  1  0.643037  0.524961  0.844721  1
  O  O35  1  0.356963  0.024961  0.655279  1
  O  O36  1  0.036386  0.210864  0.156495  1
  O  O37  1  0.963614  0.710864  0.343505  1
  O  O38  1  0.963614  0.789136  0.843505  1
  O  O39  1  0.036386  0.289136  0.656495  1
  O  O40  1  0.958863  0.578790  0.101891  1
  O  O41  1  0.041137  0.078790  0.398109  1
  O  O42  1  0.041137  0.421210  0.898109  1
  O  O43  1  0.958863  0.921210  0.601891  1
