# generated using pymatgen
data_MgTi(PO3)4
_symmetry_space_group_name_H-M   'P 1'
_cell_length_a   7.32421204
_cell_length_b   7.32016080
_cell_length_c   9.99197030
_cell_angle_alpha   98.84613570
_cell_angle_beta   109.45748863
_cell_angle_gamma   109.65210035
_symmetry_Int_Tables_number   1
_chemical_formula_structural   MgTi(PO3)4
_chemical_formula_sum   'Mg2 Ti2 P8 O24'
_cell_volume   453.88327058
_cell_formula_units_Z   2
loop_
 _symmetry_equiv_pos_site_id
 _symmetry_equiv_pos_as_xyz
  1  'x, y, z'
loop_
 _atom_site_type_symbol
 _atom_site_label
 _atom_site_symmetry_multiplicity
 _atom_site_fract_x
 _atom_site_fract_y
 _atom_site_fract_z
 _atom_site_occupancy
  Mg  Mg0  1  0.708487  0.956163  0.750045  1
  Mg  Mg1  1  0.292518  0.041128  0.250332  1
  Ti  Ti2  1  0.500218  0.498950  0.500361  1
  Ti  Ti3  1  0.501096  0.999054  0.000144  1
  P  P4  1  0.512573  0.312619  0.806613  1
  P  P5  1  0.008489  0.703570  0.693467  1
  P  P6  1  0.487554  0.684024  0.192925  1
  P  P7  1  0.992614  0.293653  0.306619  1
  P  P8  1  0.769500  0.728160  0.021469  1
  P  P9  1  0.208552  0.746887  0.478894  1
  P  P10  1  0.231609  0.268382  0.978740  1
  P  P11  1  0.791836  0.250602  0.521262  1
  O  O12  1  0.322515  0.309893  0.854233  1
  O  O13  1  0.959674  0.466231  0.645749  1
  O  O14  1  0.677738  0.685922  0.145561  1
  O  O15  1  0.041865  0.531024  0.354253  1
  O  O16  1  0.721063  0.501363  0.934281  1
  O  O17  1  0.068376  0.784993  0.565780  1
  O  O18  1  0.279137  0.495379  0.064944  1
  O  O19  1  0.930317  0.211428  0.433240  1
  O  O20  1  0.460771  0.349188  0.659248  1
  O  O21  1  0.193012  0.800252  0.840861  1
  O  O22  1  0.537912  0.647262  0.340208  1
  O  O23  1  0.809484  0.197511  0.158504  1
  O  O24  1  0.550657  0.123709  0.820369  1
  O  O25  1  0.805324  0.726669  0.680199  1
  O  O26  1  0.450383  0.873388  0.179176  1
  O  O27  1  0.195871  0.270135  0.320950  1
  O  O28  1  0.640411  0.812694  0.915272  1
  O  O29  1  0.398819  0.723584  0.584859  1
  O  O30  1  0.361703  0.185114  0.085490  1
  O  O31  1  0.601610  0.274505  0.415840  1
  O  O32  1  0.002881  0.842777  0.097418  1
  O  O33  1  0.247356  0.904792  0.403315  1
  O  O34  1  0.998421  0.152529  0.903140  1
  O  O35  1  0.753118  0.092837  0.596984  1
