# generated using pymatgen
data_MgFeNiP2O9
_symmetry_space_group_name_H-M   'P 1'
_cell_length_a   6.28447263
_cell_length_b   7.24748791
_cell_length_c   14.20242834
_cell_angle_alpha   89.87309934
_cell_angle_beta   90.00059274
_cell_angle_gamma   89.99970488
_symmetry_Int_Tables_number   1
_chemical_formula_structural   MgFeNiP2O9
_chemical_formula_sum   'Mg4 Fe4 Ni4 P8 O36'
_cell_volume   646.87129615
_cell_formula_units_Z   4
loop_
 _symmetry_equiv_pos_site_id
 _symmetry_equiv_pos_as_xyz
  1  'x, y, z'
loop_
 _atom_site_type_symbol
 _atom_site_label
 _atom_site_symmetry_multiplicity
 _atom_site_fract_x
 _atom_site_fract_y
 _atom_site_fract_z
 _atom_site_occupancy
  Mg  Mg0  1  0.750014  0.908820  0.775354  1
  Mg  Mg1  1  0.749987  0.590806  0.276748  1
  Mg  Mg2  1  0.249992  0.090618  0.224473  1
  Mg  Mg3  1  0.249993  0.409985  0.723358  1
  Fe  Fe4  1  0.750006  0.354290  0.881526  1
  Fe  Fe5  1  0.249995  0.645692  0.118455  1
  Fe  Fe6  1  0.250000  0.854493  0.619438  1
  Fe  Fe7  1  0.749995  0.145964  0.380569  1
  Ni  Ni8  1  0.499972  0.999941  0.000167  1
  Ni  Ni9  1  0.500047  0.499958  0.500073  1
  Ni  Ni10  1  -0.000055  0.499961  0.500073  1
  Ni  Ni11  1  0.000104  0.999934  0.000172  1
  P  P12  1  0.250006  0.357368  0.929251  1
  P  P13  1  0.750000  0.642578  0.070850  1
  P  P14  1  0.749994  0.858595  0.570229  1
  P  P15  1  0.249990  0.141374  0.429430  1
  P  P16  1  0.749990  0.381245  0.695636  1
  P  P17  1  0.249989  0.618777  0.304215  1
  P  P18  1  0.250010  0.880946  0.805033  1
  P  P19  1  0.749996  0.118988  0.195262  1
  O  O20  1  0.039034  0.610085  0.361057  1
  O  O21  1  0.539018  0.390069  0.638793  1
  O  O22  1  0.961469  0.108811  0.138917  1
  O  O23  1  0.461512  0.890783  0.861412  1
  O  O24  1  0.960962  0.390078  0.638793  1
  O  O25  1  0.460945  0.610091  0.361058  1
  O  O26  1  0.038527  0.890774  0.861422  1
  O  O27  1  0.538538  0.108802  0.138907  1
  O  O28  1  0.249994  0.333221  0.477526  1
  O  O29  1  0.749988  0.666838  0.522079  1
  O  O30  1  0.750037  0.834558  0.022457  1
  O  O31  1  0.250023  0.165406  0.977640  1
  O  O32  1  0.750050  0.133336  0.950247  1
  O  O33  1  0.250049  0.866651  0.049836  1
  O  O34  1  0.249996  0.630794  0.552512  1
  O  O35  1  0.749989  0.369209  0.447495  1
  O  O36  1  0.750003  0.199738  0.756701  1
  O  O37  1  0.249981  0.800307  0.243143  1
  O  O38  1  0.250002  0.698946  0.744779  1
  O  O39  1  0.749976  0.301143  0.255411  1
  O  O40  1  0.437389  0.127911  0.358950  1
  O  O41  1  0.937359  0.872128  0.640738  1
  O  O42  1  0.562427  0.629142  0.140793  1
  O  O43  1  0.062371  0.371012  0.859336  1
  O  O44  1  0.562633  0.872143  0.640738  1
  O  O45  1  0.062584  0.127923  0.358948  1
  O  O46  1  0.437635  0.370990  0.859336  1
  O  O47  1  0.937567  0.629099  0.140794  1
  O  O48  1  0.749991  0.962268  0.271924  1
  O  O49  1  0.249990  0.037856  0.728488  1
  O  O50  1  0.249999  0.461096  0.228466  1
  O  O51  1  0.749989  0.538925  0.771392  1
  O  O52  1  0.750001  0.006591  0.495655  1
  O  O53  1  0.249988  0.993012  0.503861  1
  O  O54  1  0.249992  0.504471  0.004496  1
  O  O55  1  0.749967  0.495460  0.995586  1
