# generated using pymatgen
data_Si2WO6
_symmetry_space_group_name_H-M   'P 1'
_cell_length_a   5.14227231
_cell_length_b   10.71450940
_cell_length_c   19.86359757
_cell_angle_alpha   90.00138497
_cell_angle_beta   90.00231664
_cell_angle_gamma   90.02696740
_symmetry_Int_Tables_number   1
_chemical_formula_structural   Si2WO6
_chemical_formula_sum   'Si16 W8 O48'
_cell_volume   1094.42302446
_cell_formula_units_Z   8
loop_
 _symmetry_equiv_pos_site_id
 _symmetry_equiv_pos_as_xyz
  1  'x, y, z'
loop_
 _atom_site_type_symbol
 _atom_site_label
 _atom_site_symmetry_multiplicity
 _atom_site_fract_x
 _atom_site_fract_y
 _atom_site_fract_z
 _atom_site_occupancy
  Si  Si0  1  0.619517  0.670235  0.224618  1
  Si  Si1  1  0.757672  0.829177  0.525972  1
  Si  Si2  1  0.742803  0.829214  0.026052  1
  Si  Si3  1  0.880288  0.170265  0.775363  1
  Si  Si4  1  0.119709  0.329767  0.275339  1
  Si  Si5  1  0.380410  0.829760  0.724686  1
  Si  Si6  1  0.257497  0.670815  0.525989  1
  Si  Si7  1  0.757444  0.329203  0.974010  1
  Si  Si8  1  0.742493  0.329161  0.473973  1
  Si  Si9  1  0.880266  0.670241  0.724673  1
  Si  Si10  1  0.380416  0.329764  0.775359  1
  Si  Si11  1  0.619562  0.170235  0.275330  1
  Si  Si12  1  0.242322  0.170799  0.473991  1
  Si  Si13  1  0.119654  0.829756  0.224613  1
  Si  Si14  1  0.242617  0.670804  0.026030  1
  Si  Si15  1  0.257265  0.170804  0.973993  1
  W  W16  1  0.435840  0.048397  0.126127  1
  W  W17  1  0.564190  0.951591  0.873895  1
  W  W18  1  0.935550  0.951558  0.373742  1
  W  W19  1  0.064451  0.048443  0.626234  1
  W  W20  1  0.435891  0.548427  0.373845  1
  W  W21  1  0.564135  0.451547  0.626137  1
  W  W22  1  0.935613  0.451608  0.126226  1
  W  W23  1  0.064438  0.548423  0.873795  1
  O  O24  1  0.812598  0.545139  0.681394  1
  O  O25  1  0.321228  0.045658  0.930758  1
  O  O26  1  0.187273  0.454863  0.318629  1
  O  O27  1  0.763637  0.354918  0.055165  1
  O  O28  1  0.263502  0.144970  0.055141  1
  O  O29  1  0.964832  0.218267  0.954635  1
  O  O30  1  0.865008  0.641150  0.805472  1
  O  O31  1  0.134926  0.858845  0.305410  1
  O  O32  1  0.763785  0.854795  0.444806  1
  O  O33  1  0.865106  0.141216  0.694558  1
  O  O34  1  0.313016  0.454896  0.818636  1
  O  O35  1  0.736272  0.354920  0.555130  1
  O  O36  1  0.678953  0.954357  0.069302  1
  O  O37  1  0.365012  0.858813  0.805479  1
  O  O38  1  0.686858  0.045142  0.318649  1
  O  O39  1  0.321482  0.545645  0.569202  1
  O  O40  1  0.312999  0.954868  0.681388  1
  O  O41  1  0.173928  0.718165  0.705951  1
  O  O42  1  0.325988  0.718197  0.205900  1
  O  O43  1  0.535103  0.718342  0.045423  1
  O  O44  1  0.736548  0.855071  0.944907  1
  O  O45  1  0.634947  0.641171  0.305403  1
  O  O46  1  0.821676  0.454324  0.930786  1
  O  O47  1  0.173918  0.218195  0.794118  1
  O  O48  1  0.236205  0.145194  0.555159  1
  O  O49  1  0.635073  0.141112  0.194551  1
  O  O50  1  0.678617  0.454342  0.430757  1
  O  O51  1  0.263685  0.645059  0.444831  1
  O  O52  1  0.178485  0.545668  0.069252  1
  O  O53  1  0.673989  0.781843  0.705977  1
  O  O54  1  0.187225  0.954892  0.181363  1
  O  O55  1  0.826049  0.781788  0.205874  1
  O  O56  1  0.826062  0.281822  0.294050  1
  O  O57  1  0.821957  0.954326  0.569174  1
  O  O58  1  0.236380  0.645101  0.944875  1
  O  O59  1  0.178118  0.045630  0.430800  1
  O  O60  1  0.325996  0.218172  0.294024  1
  O  O61  1  0.035195  0.781711  0.045423  1
  O  O62  1  0.465161  0.781694  0.545379  1
  O  O63  1  0.673987  0.281846  0.794078  1
  O  O64  1  0.464924  0.281700  0.954628  1
  O  O65  1  0.534794  0.218311  0.454569  1
  O  O66  1  0.034878  0.281690  0.454585  1
  O  O67  1  0.365031  0.358771  0.694561  1
  O  O68  1  0.686819  0.545104  0.181327  1
  O  O69  1  0.965073  0.718255  0.545365  1
  O  O70  1  0.135061  0.358916  0.194550  1
  O  O71  1  0.812597  0.045136  0.818609  1
