# generated using pymatgen
data_Mg(SbO2)2
_symmetry_space_group_name_H-M   'P 1'
_cell_length_a   6.99413567
_cell_length_b   6.99743689
_cell_length_c   6.70503884
_cell_angle_alpha   87.38685530
_cell_angle_beta   120.74355772
_cell_angle_gamma   120.27675129
_symmetry_Int_Tables_number   1
_chemical_formula_structural   Mg(SbO2)2
_chemical_formula_sum   'Mg2 Sb4 O8'
_cell_volume   233.40454316
_cell_formula_units_Z   2
loop_
 _symmetry_equiv_pos_site_id
 _symmetry_equiv_pos_as_xyz
  1  'x, y, z'
loop_
 _atom_site_type_symbol
 _atom_site_label
 _atom_site_symmetry_multiplicity
 _atom_site_fract_x
 _atom_site_fract_y
 _atom_site_fract_z
 _atom_site_occupancy
  Mg  Mg0  1  0.249310  0.131421  0.874850  1
  Mg  Mg1  1  0.757836  0.872768  0.123339  1
  Sb  Sb2  1  0.579067  0.986216  0.507109  1
  Sb  Sb3  1  0.433849  0.443245  0.414563  1
  Sb  Sb4  1  0.908879  0.457904  0.001754  1
  Sb  Sb5  1  0.075668  0.603923  0.574209  1
  O  O6  1  0.951308  0.691962  0.242280  1
  O  O7  1  0.497122  0.800012  0.749464  1
  O  O8  1  0.557188  0.754603  0.291532  1
  O  O9  1  0.050919  0.799424  0.738251  1
  O  O10  1  0.520372  0.264552  0.797154  1
  O  O11  1  0.459406  0.270821  0.225525  1
  O  O12  1  0.998208  0.241818  0.214210  1
  O  O13  1  0.960868  0.181335  0.745758  1
