# generated using pymatgen
data_NiSnP2O9
_symmetry_space_group_name_H-M   'P 1'
_cell_length_a   6.43853726
_cell_length_b   7.94293109
_cell_length_c   14.16812265
_cell_angle_alpha   89.95865465
_cell_angle_beta   89.98434429
_cell_angle_gamma   90.26718429
_symmetry_Int_Tables_number   1
_chemical_formula_structural   NiSnP2O9
_chemical_formula_sum   'Ni4 Sn4 P8 O36'
_cell_volume   724.56185074
_cell_formula_units_Z   4
loop_
 _symmetry_equiv_pos_site_id
 _symmetry_equiv_pos_as_xyz
  1  'x, y, z'
loop_
 _atom_site_type_symbol
 _atom_site_label
 _atom_site_symmetry_multiplicity
 _atom_site_fract_x
 _atom_site_fract_y
 _atom_site_fract_z
 _atom_site_occupancy
  Ni  Ni0  1  0.499985  0.999970  -0.000013  1
  Ni  Ni1  1  0.500079  0.499964  0.499996  1
  Ni  Ni2  1  0.999915  0.499974  0.499989  1
  Ni  Ni3  1  0.000014  -0.000023  0.000004  1
  Sn  Sn4  1  0.749242  0.349386  0.878395  1
  Sn  Sn5  1  0.250763  0.650552  0.121610  1
  Sn  Sn6  1  0.249370  0.850987  0.622182  1
  Sn  Sn7  1  0.750630  0.149009  0.377847  1
  P  P8  1  0.249657  0.346331  0.936603  1
  P  P9  1  0.750347  0.653631  0.063402  1
  P  P10  1  0.749445  0.846136  0.563585  1
  P  P11  1  0.250552  0.153851  0.436438  1
  P  P12  1  0.749530  0.393226  0.682776  1
  P  P13  1  0.250457  0.606803  0.317232  1
  P  P14  1  0.249678  0.892366  0.817162  1
  P  P15  1  0.750292  0.107696  0.182852  1
  O  O16  1  0.048402  0.596021  0.376613  1
  O  O17  1  0.548473  0.403629  0.622883  1
  O  O18  1  0.951717  0.096864  0.123574  1
  O  O19  1  0.451202  0.903932  0.876224  1
  O  O20  1  0.951515  0.404038  0.623388  1
  O  O21  1  0.451600  0.596433  0.377129  1
  O  O22  1  0.048335  0.903156  0.876454  1
  O  O23  1  0.548778  0.096074  0.123807  1
  O  O24  1  0.250656  0.334230  0.478055  1
  O  O25  1  0.749340  0.665814  0.521883  1
  O  O26  1  0.750522  0.834608  0.022232  1
  O  O27  1  0.249482  0.165405  0.977780  1
  O  O28  1  0.747482  0.131430  0.955522  1
  O  O29  1  0.252521  0.868554  0.044510  1
  O  O30  1  0.248598  0.631948  0.544821  1
  O  O31  1  0.751392  0.368063  0.455097  1
  O  O32  1  0.749239  0.226560  0.741331  1
  O  O33  1  0.250744  0.773466  0.258642  1
  O  O34  1  0.249095  0.726666  0.758026  1
  O  O35  1  0.750921  0.273371  0.241968  1
  O  O36  1  0.439019  0.132140  0.370479  1
  O  O37  1  0.937854  0.867738  0.629666  1
  O  O38  1  0.562078  0.632130  0.129713  1
  O  O39  1  0.060909  0.366777  0.870581  1
  O  O40  1  0.560993  0.867823  0.629524  1
  O  O41  1  0.062133  0.132216  0.370337  1
  O  O42  1  0.437935  0.367831  0.870271  1
  O  O43  1  0.939096  0.633195  0.129401  1
  O  O44  1  0.750017  0.968640  0.262042  1
  O  O45  1  0.249973  0.031376  0.737952  1
  O  O46  1  0.249519  0.469432  0.237413  1
  O  O47  1  0.750499  0.530489  0.762600  1
  O  O48  1  0.750154  0.977808  0.484922  1
  O  O49  1  0.249849  0.022262  0.515107  1
  O  O50  1  0.249878  0.477541  0.015021  1
  O  O51  1  0.750123  0.522485  0.984972  1
