# generated using pymatgen
data_Mo3O7
_symmetry_space_group_name_H-M   'P 1'
_cell_length_a   5.70110030
_cell_length_b   11.49470198
_cell_length_c   11.05113287
_cell_angle_alpha   90.00000000
_cell_angle_beta   90.00000000
_cell_angle_gamma   90.00000000
_symmetry_Int_Tables_number   1
_chemical_formula_structural   Mo3O7
_chemical_formula_sum   'Mo12 O28'
_cell_volume   724.20780016
_cell_formula_units_Z   4
loop_
 _symmetry_equiv_pos_site_id
 _symmetry_equiv_pos_as_xyz
  1  'x, y, z'
loop_
 _atom_site_type_symbol
 _atom_site_label
 _atom_site_symmetry_multiplicity
 _atom_site_fract_x
 _atom_site_fract_y
 _atom_site_fract_z
 _atom_site_occupancy
  Mo  Mo0  1  0.289460  0.021693  0.311516  1
  Mo  Mo1  1  0.789460  0.978307  0.188484  1
  Mo  Mo2  1  0.710540  0.521693  0.688484  1
  Mo  Mo3  1  0.210540  0.478307  0.811516  1
  Mo  Mo4  1  0.293059  0.750000  0.231097  1
  Mo  Mo5  1  0.793059  0.250000  0.268903  1
  Mo  Mo6  1  0.706941  0.250000  0.768903  1
  Mo  Mo7  1  0.206941  0.750000  0.731097  1
  Mo  Mo8  1  0.789460  0.521693  0.188484  1
  Mo  Mo9  1  0.289460  0.478307  0.311516  1
  Mo  Mo10  1  0.210540  0.021693  0.811516  1
  Mo  Mo11  1  0.710540  0.978307  0.688484  1
  O  O12  1  0.939180  0.109055  0.733021  1
  O  O13  1  0.439180  0.890945  0.766979  1
  O  O14  1  0.060820  0.609055  0.266979  1
  O  O15  1  0.560820  0.390945  0.233021  1
  O  O16  1  0.060820  0.890945  0.266979  1
  O  O17  1  0.560820  0.109055  0.233021  1
  O  O18  1  0.939180  0.390945  0.733021  1
  O  O19  1  0.439180  0.609055  0.766979  1
  O  O20  1  0.476977  0.108997  0.729118  1
  O  O21  1  0.976977  0.891003  0.770882  1
  O  O22  1  0.523023  0.608997  0.270882  1
  O  O23  1  0.023023  0.391003  0.229118  1
  O  O24  1  0.523023  0.891003  0.270882  1
  O  O25  1  0.023023  0.108997  0.229118  1
  O  O26  1  0.476977  0.391003  0.729118  1
  O  O27  1  0.976977  0.608997  0.770882  1
  O  O28  1  0.203063  0.750000  0.571878  1
  O  O29  1  0.703063  0.250000  0.928122  1
  O  O30  1  0.796937  0.250000  0.428122  1
  O  O31  1  0.296937  0.750000  0.071878  1
  O  O32  1  0.221224  0.444057  0.960994  1
  O  O33  1  0.721224  0.555943  0.539006  1
  O  O34  1  0.778776  0.944057  0.039006  1
  O  O35  1  0.278776  0.055943  0.460994  1
  O  O36  1  0.778776  0.555943  0.039006  1
  O  O37  1  0.278776  0.444057  0.460994  1
  O  O38  1  0.221224  0.055943  0.960994  1
  O  O39  1  0.721224  0.944057  0.539006  1
