# generated using pymatgen
data_Mg(SnO2)2
_symmetry_space_group_name_H-M   'P 1'
_cell_length_a   3.17810620
_cell_length_b   5.62023374
_cell_length_c   10.86941551
_cell_angle_alpha   90.00000000
_cell_angle_beta   90.00000000
_cell_angle_gamma   106.42367947
_symmetry_Int_Tables_number   1
_chemical_formula_structural   Mg(SnO2)2
_chemical_formula_sum   'Mg2 Sn4 O8'
_cell_volume   186.22452682
_cell_formula_units_Z   2
loop_
 _symmetry_equiv_pos_site_id
 _symmetry_equiv_pos_as_xyz
  1  'x, y, z'
loop_
 _atom_site_type_symbol
 _atom_site_label
 _atom_site_symmetry_multiplicity
 _atom_site_fract_x
 _atom_site_fract_y
 _atom_site_fract_z
 _atom_site_occupancy
  Mg  Mg0  1  0.391968  0.783936  0.750000  1
  Mg  Mg1  1  0.608032  0.216064  0.250000  1
  Sn  Sn2  1  0.868223  0.736447  0.078710  1
  Sn  Sn3  1  0.131777  0.263553  0.921290  1
  Sn  Sn4  1  0.868223  0.736447  0.421290  1
  Sn  Sn5  1  0.131777  0.263553  0.578710  1
  O  O6  1  0.222376  0.444754  0.380745  1
  O  O7  1  0.777624  0.555246  0.619255  1
  O  O8  1  0.777624  0.555246  0.880745  1
  O  O9  1  0.222376  0.444754  0.119255  1
  O  O10  1  0.980275  0.960551  0.250000  1
  O  O11  1  0.019725  0.039449  0.750000  1
  O  O12  1  0.500000  0.000000  -0.000000  1
  O  O13  1  0.500000  0.000000  0.500000  1
