# generated using pymatgen
data_MgTi(SiO3)2
_symmetry_space_group_name_H-M   'P 1'
_cell_length_a   5.31223970
_cell_length_b   9.04413149
_cell_length_c   18.54766357
_cell_angle_alpha   90.00000000
_cell_angle_beta   90.00000000
_cell_angle_gamma   90.00000000
_symmetry_Int_Tables_number   1
_chemical_formula_structural   MgTi(SiO3)2
_chemical_formula_sum   'Mg8 Ti8 Si16 O48'
_cell_volume   891.11497242
_cell_formula_units_Z   8
loop_
 _symmetry_equiv_pos_site_id
 _symmetry_equiv_pos_as_xyz
  1  'x, y, z'
loop_
 _atom_site_type_symbol
 _atom_site_label
 _atom_site_symmetry_multiplicity
 _atom_site_fract_x
 _atom_site_fract_y
 _atom_site_fract_z
 _atom_site_occupancy
  Mg  Mg0  1  0.622985  0.154581  0.624933  1
  Mg  Mg1  1  0.377015  0.845419  0.375067  1
  Mg  Mg2  1  0.622985  0.654581  0.875067  1
  Mg  Mg3  1  0.122985  0.845419  0.875067  1
  Mg  Mg4  1  0.877015  0.154581  0.124933  1
  Mg  Mg5  1  0.377015  0.345419  0.124933  1
  Mg  Mg6  1  0.122985  0.345419  0.624933  1
  Mg  Mg7  1  0.877015  0.654581  0.375067  1
  Ti  Ti8  1  0.365584  0.978021  0.121435  1
  Ti  Ti9  1  0.634416  0.021979  0.878565  1
  Ti  Ti10  1  0.865584  0.021979  0.378565  1
  Ti  Ti11  1  0.134416  0.978021  0.621435  1
  Ti  Ti12  1  0.365584  0.478021  0.378565  1
  Ti  Ti13  1  0.634416  0.521979  0.621435  1
  Ti  Ti14  1  0.865584  0.521979  0.121435  1
  Ti  Ti15  1  0.134416  0.478021  0.878565  1
  Si  Si16  1  0.553305  0.659821  0.229798  1
  Si  Si17  1  0.702431  0.836440  0.525107  1
  Si  Si18  1  0.797569  0.836440  0.025107  1
  Si  Si19  1  0.946695  0.159821  0.770202  1
  Si  Si20  1  0.053305  0.340179  0.270202  1
  Si  Si21  1  0.446695  0.840179  0.729798  1
  Si  Si22  1  0.202431  0.663560  0.525107  1
  Si  Si23  1  0.702431  0.336440  0.974893  1
  Si  Si24  1  0.797569  0.336440  0.474893  1
  Si  Si25  1  0.946695  0.659821  0.729798  1
  Si  Si26  1  0.446695  0.340179  0.770202  1
  Si  Si27  1  0.553305  0.159821  0.270202  1
  Si  Si28  1  0.297569  0.163560  0.474893  1
  Si  Si29  1  0.053305  0.840179  0.229798  1
  Si  Si30  1  0.297569  0.663560  0.025107  1
  Si  Si31  1  0.202431  0.163560  0.974893  1
  O  O32  1  0.951872  0.500600  0.690485  1
  O  O33  1  0.287191  0.013218  0.935150  1
  O  O34  1  0.048128  0.499400  0.309515  1
  O  O35  1  0.708227  0.335906  0.063591  1
  O  O36  1  0.208227  0.164094  0.063591  1
  O  O37  1  0.905226  0.203118  0.948353  1
  O  O38  1  0.953288  0.663568  0.817764  1
  O  O39  1  0.046712  0.836432  0.317764  1
  O  O40  1  0.708227  0.835906  0.436409  1
  O  O41  1  0.953288  0.163568  0.682236  1
  O  O42  1  0.451872  0.499400  0.809515  1
  O  O43  1  0.791773  0.335906  0.563591  1
  O  O44  1  0.712809  0.986782  0.064850  1
  O  O45  1  0.453288  0.836432  0.817764  1
  O  O46  1  0.548128  0.000600  0.309515  1
  O  O47  1  0.287191  0.513218  0.564850  1
  O  O48  1  0.451872  0.999400  0.690485  1
  O  O49  1  0.171406  0.772180  0.698790  1
  O  O50  1  0.328594  0.772180  0.198790  1
  O  O51  1  0.594774  0.703118  0.051647  1
  O  O52  1  0.791773  0.835906  0.936409  1
  O  O53  1  0.546712  0.663568  0.317764  1
  O  O54  1  0.787191  0.486782  0.935150  1
  O  O55  1  0.171406  0.272180  0.801210  1
  O  O56  1  0.291773  0.164094  0.563591  1
  O  O57  1  0.546712  0.163568  0.182236  1
  O  O58  1  0.712809  0.486782  0.435150  1
  O  O59  1  0.208227  0.664094  0.436409  1
  O  O60  1  0.212809  0.513218  0.064850  1
  O  O61  1  0.671406  0.727820  0.698790  1
  O  O62  1  0.048128  0.999400  0.190485  1
  O  O63  1  0.828594  0.727820  0.198790  1
  O  O64  1  0.828594  0.227820  0.301210  1
  O  O65  1  0.787191  0.986782  0.564850  1
  O  O66  1  0.291773  0.664094  0.936409  1
  O  O67  1  0.212809  0.013218  0.435150  1
  O  O68  1  0.328594  0.272180  0.301210  1
  O  O69  1  0.094774  0.796882  0.051647  1
  O  O70  1  0.405226  0.796882  0.551647  1
  O  O71  1  0.671406  0.227820  0.801210  1
  O  O72  1  0.405226  0.296882  0.948353  1
  O  O73  1  0.594774  0.203118  0.448353  1
  O  O74  1  0.094774  0.296882  0.448353  1
  O  O75  1  0.453288  0.336432  0.682236  1
  O  O76  1  0.548128  0.500600  0.190485  1
  O  O77  1  0.905226  0.703118  0.551647  1
  O  O78  1  0.046712  0.336432  0.182236  1
  O  O79  1  0.951872  0.000600  0.809515  1
