# generated using pymatgen
data_W2O5
_symmetry_space_group_name_H-M   'P 1'
_cell_length_a   12.06615657
_cell_length_b   6.15292793
_cell_length_c   3.86901587
_cell_angle_alpha   108.32486863
_cell_angle_beta   90.00000000
_cell_angle_gamma   90.00000000
_symmetry_Int_Tables_number   1
_chemical_formula_structural   W2O5
_chemical_formula_sum   'W4 O10'
_cell_volume   272.67780642
_cell_formula_units_Z   2
loop_
 _symmetry_equiv_pos_site_id
 _symmetry_equiv_pos_as_xyz
  1  'x, y, z'
loop_
 _atom_site_type_symbol
 _atom_site_label
 _atom_site_symmetry_multiplicity
 _atom_site_fract_x
 _atom_site_fract_y
 _atom_site_fract_z
 _atom_site_occupancy
  W  W0  1  0.150318  0.897532  0.948766  1
  W  W1  1  0.349682  0.102468  0.551234  1
  W  W2  1  0.650318  0.102468  0.551234  1
  W  W3  1  0.849682  0.897532  0.948766  1
  O  O4  1  -0.000000  0.025195  0.012598  1
  O  O5  1  0.138713  0.602416  0.801208  1
  O  O6  1  0.182032  0.998256  0.499128  1
  O  O7  1  0.317967  0.001742  0.000871  1
  O  O8  1  0.361287  0.397584  0.698792  1
  O  O9  1  0.500000  0.974805  0.487402  1
  O  O10  1  0.638713  0.397584  0.698792  1
  O  O11  1  0.861287  0.602416  0.801208  1
  O  O12  1  0.682032  0.001742  0.000871  1
  O  O13  1  0.817968  0.998256  0.499128  1
