# generated using pymatgen
data_MgV2O6
_symmetry_space_group_name_H-M   'P 1'
_cell_length_a   4.87264043
_cell_length_b   5.21704237
_cell_length_c   7.97632540
_cell_angle_alpha   89.94101283
_cell_angle_beta   89.99738015
_cell_angle_gamma   89.98742740
_symmetry_Int_Tables_number   1
_chemical_formula_structural   MgV2O6
_chemical_formula_sum   'Mg2 V4 O12'
_cell_volume   202.76423344
_cell_formula_units_Z   2
loop_
 _symmetry_equiv_pos_site_id
 _symmetry_equiv_pos_as_xyz
  1  'x, y, z'
loop_
 _atom_site_type_symbol
 _atom_site_label
 _atom_site_symmetry_multiplicity
 _atom_site_fract_x
 _atom_site_fract_y
 _atom_site_fract_z
 _atom_site_occupancy
  Mg  Mg0  1  0.563294  0.560951  0.248435  1
  Mg  Mg1  1  0.063321  0.939114  0.751570  1
  V  V2  1  0.486246  0.011477  0.048977  1
  V  V3  1  0.986216  0.488558  0.950973  1
  V  V4  1  0.040430  0.487363  0.479794  1
  V  V5  1  0.540454  0.012880  0.520236  1
  O  O6  1  0.691407  0.298532  0.433736  1
  O  O7  1  0.191423  0.201479  0.566275  1
  O  O8  1  0.757165  0.783901  0.051773  1
  O  O9  1  0.257154  0.715853  0.948214  1
  O  O10  1  0.259662  0.730133  0.565499  1
  O  O11  1  0.759642  0.769923  0.434473  1
  O  O12  1  0.183475  0.193223  0.934791  1
  O  O13  1  0.683492  0.306636  0.065207  1
  O  O14  1  0.155081  0.480446  0.278401  1
  O  O15  1  0.655049  0.019555  0.721606  1
  O  O16  1  0.374362  0.973731  0.245476  1
  O  O17  1  0.874304  0.526303  0.754460  1
