# generated using pymatgen
data_Mg(SbO2)2
_symmetry_space_group_name_H-M   'P 1'
_cell_length_a   6.54584070
_cell_length_b   6.71894866
_cell_length_c   6.71894843
_cell_angle_alpha   59.99999700
_cell_angle_beta   59.12126414
_cell_angle_gamma   59.12126344
_symmetry_Int_Tables_number   1
_chemical_formula_structural   Mg(SbO2)2
_chemical_formula_sum   'Mg2 Sb4 O8'
_cell_volume   206.13662967
_cell_formula_units_Z   2
loop_
 _symmetry_equiv_pos_site_id
 _symmetry_equiv_pos_as_xyz
  1  'x, y, z'
loop_
 _atom_site_type_symbol
 _atom_site_label
 _atom_site_symmetry_multiplicity
 _atom_site_fract_x
 _atom_site_fract_y
 _atom_site_fract_z
 _atom_site_occupancy
  Mg  Mg0  1  0.986411  0.004529  0.004529  1
  Mg  Mg1  1  0.116042  0.627986  0.627986  1
  Sb  Sb2  1  0.324827  0.225058  0.225058  1
  Sb  Sb3  1  0.634382  0.127264  0.619177  1
  Sb  Sb4  1  0.634382  0.619177  0.127264  1
  Sb  Sb5  1  0.634382  0.619177  0.619177  1
  O  O6  1  0.332293  0.408478  0.408478  1
  O  O7  1  0.332293  0.408478  0.850748  1
  O  O8  1  0.332293  0.850748  0.408478  1
  O  O9  1  0.949071  0.350309  0.350309  1
  O  O10  1  0.402667  0.865777  0.865777  1
  O  O11  1  0.856985  0.402403  0.870306  1
  O  O12  1  0.856985  0.870306  0.402403  1
  O  O13  1  0.856985  0.870306  0.870306  1
