# generated using pymatgen
data_Mg(SnO2)2
_symmetry_space_group_name_H-M   'P 1'
_cell_length_a   6.62622202
_cell_length_b   6.63334847
_cell_length_c   6.63467891
_cell_angle_alpha   88.57761196
_cell_angle_beta   121.93728109
_cell_angle_gamma   119.79805719
_symmetry_Int_Tables_number   1
_chemical_formula_structural   Mg(SnO2)2
_chemical_formula_sum   'Mg2 Sn4 O8'
_cell_volume   203.22645891
_cell_formula_units_Z   2
loop_
 _symmetry_equiv_pos_site_id
 _symmetry_equiv_pos_as_xyz
  1  'x, y, z'
loop_
 _atom_site_type_symbol
 _atom_site_label
 _atom_site_symmetry_multiplicity
 _atom_site_fract_x
 _atom_site_fract_y
 _atom_site_fract_z
 _atom_site_occupancy
  Mg  Mg0  1  0.251383  0.103724  0.855011  1
  Mg  Mg1  1  0.748664  0.896281  0.145048  1
  Sn  Sn2  1  0.500233  0.000085  0.500034  1
  Sn  Sn3  1  0.500293  0.500079  0.499914  1
  Sn  Sn4  1  0.999613  0.499702  0.000169  1
  Sn  Sn5  1  0.000323  0.500156  0.500332  1
  O  O6  1  0.022332  0.757442  0.280994  1
  O  O7  1  0.477921  0.758681  0.735401  1
  O  O8  1  0.516134  0.798190  0.282196  1
  O  O9  1  0.017160  0.734017  0.718955  1
  O  O10  1  0.483659  0.201653  0.717632  1
  O  O11  1  0.522375  0.241646  0.265118  1
  O  O12  1  0.981927  0.265968  0.280238  1
  O  O13  1  0.977982  0.242376  0.718956  1
