# generated using pymatgen
data_VP2O7
_symmetry_space_group_name_H-M   'P 1'
_cell_length_a   5.14665671
_cell_length_b   5.14665654
_cell_length_c   4.55691502
_cell_angle_alpha   82.80666781
_cell_angle_beta   97.19333189
_cell_angle_gamma   79.36738469
_symmetry_Int_Tables_number   1
_chemical_formula_structural   VP2O7
_chemical_formula_sum   'V1 P2 O7'
_cell_volume   116.32817669
_cell_formula_units_Z   1
loop_
 _symmetry_equiv_pos_site_id
 _symmetry_equiv_pos_as_xyz
  1  'x, y, z'
loop_
 _atom_site_type_symbol
 _atom_site_label
 _atom_site_symmetry_multiplicity
 _atom_site_fract_x
 _atom_site_fract_y
 _atom_site_fract_z
 _atom_site_occupancy
  V  V0  1  0.116086  0.116086  0.000000  1
  P  P1  1  0.666283  0.258564  0.415013  1
  P  P2  1  0.258564  0.666283  0.584987  1
  O  O3  1  0.806626  0.082470  0.706380  1
  O  O4  1  0.319926  0.863002  0.803625  1
  O  O5  1  0.149208  0.437754  0.734768  1
  O  O6  1  0.082470  0.806626  0.293620  1
  O  O7  1  0.546969  0.546969  0.500000  1
  O  O8  1  0.437754  0.149208  0.265232  1
  O  O9  1  0.863002  0.319926  0.196375  1
