# generated using pymatgen
data_Li3Fe(PO4)2
_symmetry_space_group_name_H-M   'P 1'
_cell_length_a   4.94133416
_cell_length_b   17.84858862
_cell_length_c   6.39081765
_cell_angle_alpha   89.99997899
_cell_angle_beta   93.01174787
_cell_angle_gamma   89.99999476
_symmetry_Int_Tables_number   1
_chemical_formula_structural   Li3Fe(PO4)2
_chemical_formula_sum   'Li12 Fe4 P8 O32'
_cell_volume   562.86502053
_cell_formula_units_Z   4
loop_
 _symmetry_equiv_pos_site_id
 _symmetry_equiv_pos_as_xyz
  1  'x, y, z'
loop_
 _atom_site_type_symbol
 _atom_site_label
 _atom_site_symmetry_multiplicity
 _atom_site_fract_x
 _atom_site_fract_y
 _atom_site_fract_z
 _atom_site_occupancy
  Li  Li0  1  0.182510  0.699346  0.812578  1
  Li  Li1  1  0.817485  0.300655  0.187422  1
  Li  Li2  1  0.780411  0.116098  0.503379  1
  Li  Li3  1  0.719590  0.616098  0.996620  1
  Li  Li4  1  0.719463  0.943447  0.717407  1
  Li  Li5  1  0.219590  0.883901  0.496627  1
  Li  Li6  1  0.280411  0.383902  0.003375  1
  Li  Li7  1  0.280537  0.056552  0.282594  1
  Li  Li8  1  0.219463  0.556553  0.217405  1
  Li  Li9  1  0.317485  0.199345  0.687423  1
  Li  Li10  1  0.682510  0.800654  0.312579  1
  Li  Li11  1  0.780537  0.443448  0.782592  1
  O  O12  1  0.138317  0.064140  0.568522  1
  O  O13  1  0.945340  0.326727  0.902046  1
  O  O14  1  0.976862  0.308619  0.510548  1
  O  O15  1  0.980250  0.801198  0.821557  1
  O  O16  1  0.019746  0.198804  0.178443  1
  O  O17  1  0.023136  0.691381  0.489453  1
  O  O18  1  0.054652  0.673275  0.097953  1
  O  O19  1  0.089135  0.439631  0.271982  1
  O  O20  1  0.146167  0.066988  0.964622  1
  O  O21  1  0.410868  0.939630  0.228019  1
  O  O22  1  0.116679  0.802287  0.267410  1
  O  O23  1  0.211716  0.447510  0.723738  1
  O  O24  1  0.288292  0.947510  0.776266  1
  O  O25  1  0.853833  0.933013  0.035377  1
  O  O26  1  0.353835  0.566988  0.535374  1
  O  O27  1  0.383324  0.302286  0.232590  1
  O  O28  1  0.910867  0.560369  0.728014  1
  O  O29  1  0.445342  0.173273  0.402049  1
  O  O30  1  0.519748  0.301196  0.678441  1
  O  O31  1  0.476863  0.191380  0.010547  1
  O  O32  1  0.523134  0.808619  0.989453  1
  O  O33  1  0.480251  0.698803  0.321554  1
  O  O34  1  0.554652  0.826725  0.597953  1
  O  O35  1  0.589135  0.060370  0.771984  1
  O  O36  1  0.616681  0.697713  0.767408  1
  O  O37  1  0.646168  0.433012  0.464622  1
  O  O38  1  0.638318  0.435861  0.068523  1
  O  O39  1  0.711712  0.052490  0.223740  1
  O  O40  1  0.788293  0.552490  0.276263  1
  O  O41  1  0.883324  0.197713  0.732592  1
  O  O42  1  0.861684  0.935857  0.431477  1
  O  O43  1  0.361682  0.564143  0.931475  1
  P  P44  1  0.330392  0.215522  0.210590  1
  P  P45  1  0.669605  0.784479  0.789409  1
  P  P46  1  0.718136  0.964295  0.231535  1
  P  P47  1  0.781866  0.464295  0.268463  1
  P  P48  1  0.169605  0.715521  0.289409  1
  P  P49  1  0.218137  0.535705  0.731534  1
  P  P50  1  0.281865  0.035704  0.768467  1
  P  P51  1  0.830393  0.284480  0.710588  1
  Fe  Fe52  1  0.805146  0.127097  0.984601  1
  Fe  Fe53  1  0.694859  0.627099  0.515399  1
  Fe  Fe54  1  0.305145  0.372902  0.484596  1
  Fe  Fe55  1  0.194854  0.872902  0.015411  1
