# generated using pymatgen
data_Li(Mo4O5)2
_symmetry_space_group_name_H-M   'P 1'
_cell_length_a   6.35389533
_cell_length_b   6.35389533
_cell_length_c   13.54883993
_cell_angle_alpha   103.56104072
_cell_angle_beta   103.56104076
_cell_angle_gamma   90.00000001
_symmetry_Int_Tables_number   1
_chemical_formula_structural   Li(Mo4O5)2
_chemical_formula_sum   'Li2 Mo16 O20'
_cell_volume   516.04348267
_cell_formula_units_Z   2
loop_
 _symmetry_equiv_pos_site_id
 _symmetry_equiv_pos_as_xyz
  1  'x, y, z'
loop_
 _atom_site_type_symbol
 _atom_site_label
 _atom_site_symmetry_multiplicity
 _atom_site_fract_x
 _atom_site_fract_y
 _atom_site_fract_z
 _atom_site_occupancy
  Li  Li0  1  0.375568  0.875568  0.751135  1
  Li  Li1  1  0.625568  0.625568  0.251135  1
  O  O2  1  0.686816  0.414820  0.829639  1
  O  O3  1  0.164820  0.936816  0.329639  1
  O  O4  1  0.164820  0.392823  0.329639  1
  O  O5  1  0.142823  0.414820  0.829639  1
  O  O6  1  0.309189  0.087547  0.175093  1
  O  O7  1  0.837547  0.559189  0.675093  1
  O  O8  1  0.837547  0.115905  0.675093  1
  O  O9  1  0.865905  0.087547  0.175093  1
  O  O10  1  0.696326  0.922397  0.844794  1
  O  O11  1  0.672397  0.946326  0.344794  1
  O  O12  1  0.672397  0.398468  0.344794  1
  O  O13  1  0.148468  0.922397  0.844794  1
  O  O14  1  0.311799  0.581652  0.163303  1
  O  O15  1  0.331652  0.561799  0.663303  1
  O  O16  1  0.011256  0.751133  0.502265  1
  O  O17  1  0.501133  0.261256  0.002265  1
  O  O18  1  0.501133  0.741010  0.002265  1
  O  O19  1  0.491010  0.751133  0.502265  1
  O  O20  1  0.851504  0.581652  0.163303  1
  O  O21  1  0.331652  0.101504  0.663303  1
  Mo  Mo22  1  0.426552  0.171003  0.342007  1
  Mo  Mo23  1  0.921003  0.676552  0.842007  1
  Mo  Mo24  1  0.921003  0.165455  0.842007  1
  Mo  Mo25  1  0.915455  0.171003  0.342007  1
  Mo  Mo26  1  0.574779  0.331621  0.663241  1
  Mo  Mo27  1  0.081621  0.824779  0.163241  1
  Mo  Mo28  1  0.081621  0.338462  0.163241  1
  Mo  Mo29  1  0.088462  0.331621  0.663241  1
  Mo  Mo30  1  0.268906  0.003725  0.007451  1
  Mo  Mo31  1  0.753725  0.518906  0.507451  1
  Mo  Mo32  1  0.753725  -0.011456  0.507451  1
  Mo  Mo33  1  0.738544  0.003725  0.007451  1
  Mo  Mo34  1  0.245312  0.499579  -0.000841  1
  Mo  Mo35  1  0.249579  0.495312  0.499159  1
  Mo  Mo36  1  0.249579  0.003846  0.499159  1
  Mo  Mo37  1  0.753846  0.499579  -0.000841  1
