# generated using pymatgen
data_TiO2
_symmetry_space_group_name_H-M   'P 1'
_cell_length_a   2.99175662
_cell_length_b   4.60677861
_cell_length_c   4.60677606
_cell_angle_alpha   90.00005410
_cell_angle_beta   90.00000781
_cell_angle_gamma   90.00000862
_symmetry_Int_Tables_number   1
_chemical_formula_structural   TiO2
_chemical_formula_sum   'Ti2 O4'
_cell_volume   63.49224796
_cell_formula_units_Z   2
loop_
 _symmetry_equiv_pos_site_id
 _symmetry_equiv_pos_as_xyz
  1  'x, y, z'
loop_
 _atom_site_type_symbol
 _atom_site_label
 _atom_site_symmetry_multiplicity
 _atom_site_fract_x
 _atom_site_fract_y
 _atom_site_fract_z
 _atom_site_occupancy
  Ti  Ti0  1  0.000001  0.000001  1.000000  1
  Ti  Ti1  1  0.500001  0.500001  0.500000  1
  O  O2  1  1.000000  0.304474  0.304474  1
  O  O3  1  1.000000  0.695525  0.695526  1
  O  O4  1  0.499999  0.804480  0.195519  1
  O  O5  1  0.500000  0.195519  0.804481  1
