# generated using pymatgen
data_V2P3O11
_symmetry_space_group_name_H-M   'P 1'
_cell_length_a   7.28608781
_cell_length_b   7.28608781
_cell_length_c   8.97802053
_cell_angle_alpha   70.55720251
_cell_angle_beta   109.44279751
_cell_angle_gamma   108.08321987
_symmetry_Int_Tables_number   1
_chemical_formula_structural   V2P3O11
_chemical_formula_sum   'V4 P6 O22'
_cell_volume   412.99282340
_cell_formula_units_Z   2
loop_
 _symmetry_equiv_pos_site_id
 _symmetry_equiv_pos_as_xyz
  1  'x, y, z'
loop_
 _atom_site_type_symbol
 _atom_site_label
 _atom_site_symmetry_multiplicity
 _atom_site_fract_x
 _atom_site_fract_y
 _atom_site_fract_z
 _atom_site_occupancy
  O  O0  1  0.012674  0.859563  0.898193  1
  O  O1  1  0.048381  0.231587  0.789614  1
  O  O2  1  0.140408  0.987285  0.398195  1
  O  O3  1  0.254765  0.610438  0.828506  1
  O  O4  1  0.231588  0.048381  0.710386  1
  O  O5  1  0.153687  0.535906  0.131202  1
  O  O6  1  0.464001  0.846247  0.631199  1
  O  O7  1  0.278606  0.368323  0.431958  1
  O  O8  1  0.631600  0.721354  0.931939  1
  O  O9  1  0.483007  0.483007  0.750000  1
  O  O10  1  0.389483  0.745119  0.328521  1
  O  O11  1  0.610438  0.254766  0.671494  1
  O  O12  1  0.516937  0.516938  0.249999  1
  O  O13  1  0.368322  0.278606  0.068041  1
  O  O14  1  0.721356  0.631599  0.568061  1
  O  O15  1  0.535907  0.153687  0.368797  1
  O  O16  1  0.987285  0.140409  0.101805  1
  O  O17  1  0.768349  0.951544  0.289613  1
  O  O18  1  0.745118  0.389483  0.171479  1
  O  O19  1  0.859563  0.012673  0.601807  1
  O  O20  1  0.951545  0.768350  0.210387  1
  O  O21  1  0.846248  0.464001  0.868801  1
  P  P22  1  0.039994  0.039994  0.750000  1
  P  P23  1  0.456381  0.672139  0.789935  1
  P  P24  1  0.327826  0.543584  0.289948  1
  P  P25  1  0.672140  0.456382  0.710065  1
  P  P26  1  0.543584  0.327826  0.210051  1
  P  P27  1  0.959898  0.959900  0.249999  1
  V  V28  1  0.110673  0.362746  0.959913  1
  V  V29  1  0.362746  0.110673  0.540087  1
  V  V30  1  0.637111  0.889243  0.459913  1
  V  V31  1  0.889242  0.637112  0.040087  1
