# generated using pymatgen
data_VP2O7
_symmetry_space_group_name_H-M   'P 1'
_cell_length_a   7.07670308
_cell_length_b   8.14980014
_cell_length_c   8.84001328
_cell_angle_alpha   90.00000000
_cell_angle_beta   112.02130661
_cell_angle_gamma   90.00000000
_symmetry_Int_Tables_number   1
_chemical_formula_structural   VP2O7
_chemical_formula_sum   'V4 P8 O28'
_cell_volume   472.64103567
_cell_formula_units_Z   4
loop_
 _symmetry_equiv_pos_site_id
 _symmetry_equiv_pos_as_xyz
  1  'x, y, z'
loop_
 _atom_site_type_symbol
 _atom_site_label
 _atom_site_symmetry_multiplicity
 _atom_site_fract_x
 _atom_site_fract_y
 _atom_site_fract_z
 _atom_site_occupancy
  V  V0  1  0.379170  0.092165  0.611966  1
  V  V1  1  0.620830  0.907835  0.388034  1
  V  V2  1  0.120830  0.592165  0.888034  1
  V  V3  1  0.879170  0.407835  0.111966  1
  P  P4  1  0.170845  0.737112  0.243215  1
  P  P5  1  0.416456  0.241008  0.962474  1
  P  P6  1  0.670845  0.762888  0.743215  1
  P  P7  1  0.916456  0.258992  0.462474  1
  P  P8  1  0.329155  0.237112  0.256785  1
  P  P9  1  0.083544  0.741008  0.537526  1
  P  P10  1  0.583544  0.758992  0.037526  1
  P  P11  1  0.829155  0.262888  0.756785  1
  O  O12  1  0.368075  0.153591  0.105097  1
  O  O13  1  0.554664  0.611711  0.679688  1
  O  O14  1  0.054664  0.888289  0.179688  1
  O  O15  1  0.293837  0.401011  0.920081  1
  O  O16  1  0.631925  0.846409  0.894903  1
  O  O17  1  0.388944  0.086556  0.379789  1
  O  O18  1  0.706163  0.598989  0.079919  1
  O  O19  1  0.364610  0.112778  0.828387  1
  O  O20  1  0.147331  0.227520  0.525639  1
  O  O21  1  0.611056  0.913444  0.620211  1
  O  O22  1  0.888944  0.413444  0.879789  1
  O  O23  1  0.909440  0.740397  0.816433  1
  O  O24  1  0.590560  0.240397  0.683567  1
  O  O25  1  0.868075  0.346409  0.605097  1
  O  O26  1  0.111056  0.586556  0.120211  1
  O  O27  1  0.945336  0.111711  0.820312  1
  O  O28  1  0.090560  0.259603  0.183567  1
  O  O29  1  0.635390  0.887222  0.171613  1
  O  O30  1  0.647331  0.272480  0.025639  1
  O  O31  1  0.352669  0.727520  0.974361  1
  O  O32  1  0.206163  0.901011  0.579919  1
  O  O33  1  0.864610  0.387222  0.328387  1
  O  O34  1  0.135390  0.612778  0.671613  1
  O  O35  1  0.445336  0.388289  0.320312  1
  O  O36  1  0.409440  0.759603  0.316433  1
  O  O37  1  0.793837  0.098989  0.420081  1
  O  O38  1  0.852669  0.772480  0.474361  1
  O  O39  1  0.131925  0.653591  0.394903  1
