# generated using pymatgen
data_Li(MoO2)2
_symmetry_space_group_name_H-M   'P 1'
_cell_length_a   6.26752755
_cell_length_b   6.42320225
_cell_length_c   6.38570982
_cell_angle_alpha   58.58915631
_cell_angle_beta   60.16929025
_cell_angle_gamma   60.40580092
_symmetry_Int_Tables_number   1
_chemical_formula_structural   Li(MoO2)2
_chemical_formula_sum   'Li2 Mo4 O8'
_cell_volume   180.52104510
_cell_formula_units_Z   2
loop_
 _symmetry_equiv_pos_site_id
 _symmetry_equiv_pos_as_xyz
  1  'x, y, z'
loop_
 _atom_site_type_symbol
 _atom_site_label
 _atom_site_symmetry_multiplicity
 _atom_site_fract_x
 _atom_site_fract_y
 _atom_site_fract_z
 _atom_site_occupancy
  Li  Li0  1  0.119078  0.130920  0.119077  1
  Li  Li1  1  0.880920  0.869083  0.880921  1
  O  O2  1  0.251788  0.259268  0.712037  1
  O  O3  1  0.744219  0.722768  0.746643  1
  O  O4  1  0.748213  0.740733  0.287963  1
  O  O5  1  0.253357  0.713631  0.255782  1
  O  O6  1  0.255782  0.277232  0.253358  1
  O  O7  1  0.287963  0.723092  0.748213  1
  O  O8  1  0.746644  0.286369  0.744219  1
  O  O9  1  0.712037  0.276908  0.251788  1
  Mo  Mo10  1  0.500000  0.500000  0.500000  1
  Mo  Mo11  1  0.500000  1.000001  0.500000  1
  Mo  Mo12  1  0.000002  0.499999  0.499999  1
  Mo  Mo13  1  0.499999  0.500000  0.000002  1
