# generated using pymatgen
data_La2MoO6
_symmetry_space_group_name_H-M   'P 1'
_cell_length_a   5.64176195
_cell_length_b   6.22355056
_cell_length_c   7.99172063
_cell_angle_alpha   90.00000000
_cell_angle_beta   95.01189569
_cell_angle_gamma   90.00000000
_symmetry_Int_Tables_number   1
_chemical_formula_structural   La2MoO6
_chemical_formula_sum   'La4 Mo2 O12'
_cell_volume   279.53075742
_cell_formula_units_Z   2
loop_
 _symmetry_equiv_pos_site_id
 _symmetry_equiv_pos_as_xyz
  1  'x, y, z'
loop_
 _atom_site_type_symbol
 _atom_site_label
 _atom_site_symmetry_multiplicity
 _atom_site_fract_x
 _atom_site_fract_y
 _atom_site_fract_z
 _atom_site_occupancy
  O  O0  1  0.857608  0.067132  0.276625  1
  O  O1  1  0.863032  0.264070  0.583346  1
  O  O2  1  0.786887  0.345556  0.950486  1
  O  O3  1  0.713113  0.845556  0.549514  1
  O  O4  1  0.636968  0.764070  0.916654  1
  O  O5  1  0.642392  0.567132  0.223375  1
  O  O6  1  0.142392  0.932868  0.723375  1
  O  O7  1  0.136968  0.735930  0.416654  1
  O  O8  1  0.213113  0.654444  0.049514  1
  O  O9  1  0.286887  0.154444  0.450486  1
  O  O10  1  0.363032  0.235930  0.083346  1
  O  O11  1  0.357608  0.432868  0.776625  1
  Mo  Mo12  1  0.500000  0.500000  0.000000  1
  Mo  Mo13  1  0.000000  0.000000  0.500000  1
  La  La14  1  0.966778  0.583211  0.755645  1
  La  La15  1  0.533222  0.083211  0.744355  1
  La  La16  1  0.466778  0.916789  0.255645  1
  La  La17  1  0.033222  0.416789  0.244355  1
