# generated using pymatgen
data_Fe(SeO3)2
_symmetry_space_group_name_H-M   'P 1'
_cell_length_a   9.21968355
_cell_length_b   9.21968355
_cell_length_c   9.21968355
_cell_angle_alpha   107.94537087
_cell_angle_beta   107.94537087
_cell_angle_gamma   112.56801439
_symmetry_Int_Tables_number   1
_chemical_formula_structural   Fe(SeO3)2
_chemical_formula_sum   'Fe4 Se8 O24'
_cell_volume   601.96050184
_cell_formula_units_Z   4
loop_
 _symmetry_equiv_pos_site_id
 _symmetry_equiv_pos_as_xyz
  1  'x, y, z'
loop_
 _atom_site_type_symbol
 _atom_site_label
 _atom_site_symmetry_multiplicity
 _atom_site_fract_x
 _atom_site_fract_y
 _atom_site_fract_z
 _atom_site_occupancy
  O  O0  1  0.910528  0.568594  0.971075  1
  O  O1  1  0.322525  0.946294  0.775515  1
  O  O2  1  0.152481  0.681406  0.841934  1
  O  O3  1  0.082396  0.373074  0.874526  1
  O  O4  1  0.839472  0.310547  0.158066  1
  O  O5  1  0.498548  0.207870  0.125474  1
  O  O6  1  0.696294  0.572525  0.275515  1
  O  O7  1  0.667604  0.042130  0.790678  1
  O  O8  1  0.318594  0.160528  0.471075  1
  O  O9  1  0.431406  0.402481  0.341934  1
  O  O10  1  0.597519  0.939453  0.028925  1
  O  O11  1  0.427475  0.702990  0.123768  1
  O  O12  1  0.792130  0.917604  0.290678  1
  O  O13  1  0.957870  0.748548  0.625474  1
  O  O14  1  0.123074  0.332396  0.374526  1
  O  O15  1  0.626926  0.501452  0.709322  1
  O  O16  1  0.579222  0.303706  0.876232  1
  O  O17  1  0.170778  0.547010  0.224485  1
  O  O18  1  0.297010  0.420778  0.724485  1
  O  O19  1  0.689453  0.847519  0.528925  1
  O  O20  1  0.060547  0.089472  0.658066  1
  O  O21  1  0.251452  0.876926  0.209322  1
  O  O22  1  0.452990  0.677475  0.623768  1
  O  O23  1  0.053706  0.829222  0.376232  1
  Fe  Fe24  1  0.875000  0.833761  0.458761  1
  Fe  Fe25  1  0.375000  0.416239  0.541239  1
  Fe  Fe26  1  0.166239  0.625000  0.041239  1
  Fe  Fe27  1  0.583761  0.125000  0.958761  1
  Se  Se28  1  0.609044  0.402384  0.320595  1
  Se  Se29  1  0.711551  0.390956  0.793340  1
  Se  Se30  1  0.038449  0.331789  0.179405  1
  Se  Se31  1  0.597616  0.918211  0.206660  1
  Se  Se32  1  0.668211  0.847616  0.706660  1
  Se  Se33  1  0.081789  0.288449  0.679405  1
  Se  Se34  1  0.140956  0.961551  0.293340  1
  Se  Se35  1  0.152384  0.859044  0.820595  1
