# generated using pymatgen
data_V6P7O24
_symmetry_space_group_name_H-M   'P 1'
_cell_length_a   5.32859168
_cell_length_b   26.82659653
_cell_length_c   6.59075007
_cell_angle_alpha   90.00000000
_cell_angle_beta   106.90739602
_cell_angle_gamma   90.00000000
_symmetry_Int_Tables_number   1
_chemical_formula_structural   V6P7O24
_chemical_formula_sum   'V12 P14 O48'
_cell_volume   901.41163358
_cell_formula_units_Z   2
loop_
 _symmetry_equiv_pos_site_id
 _symmetry_equiv_pos_as_xyz
  1  'x, y, z'
loop_
 _atom_site_type_symbol
 _atom_site_label
 _atom_site_symmetry_multiplicity
 _atom_site_fract_x
 _atom_site_fract_y
 _atom_site_fract_z
 _atom_site_occupancy
  O  O0  1  0.055810  0.664361  0.946894  1
  O  O1  1  0.055810  0.835640  0.946894  1
  O  O2  1  0.128980  0.549603  0.999766  1
  O  O3  1  0.128980  0.950397  0.999766  1
  O  O4  1  0.160261  0.123309  0.763637  1
  O  O5  1  0.160261  0.376691  0.763637  1
  O  O6  1  0.172090  0.250000  0.796448  1
  O  O7  1  0.120043  0.692809  0.593930  1
  O  O8  1  0.120043  0.807191  0.593930  1
  O  O9  1  0.138240  0.520862  0.367954  1
  O  O10  1  0.138240  0.979139  0.367954  1
  O  O11  1  0.158332  0.095456  0.395469  1
  O  O12  1  0.158332  0.404544  0.395469  1
  O  O13  1  0.386970  0.618924  0.794914  1
  O  O14  1  0.386970  0.881076  0.794914  1
  O  O15  1  0.486447  0.702971  0.940136  1
  O  O16  1  0.486447  0.797029  0.940136  1
  O  O17  1  0.444360  0.054497  0.708895  1
  O  O18  1  0.944186  0.335629  0.053122  1
  O  O19  1  0.345299  0.750000  0.224982  1
  O  O20  1  0.593907  0.526981  0.835536  1
  O  O21  1  0.593907  0.973019  0.835536  1
  O  O22  1  0.551839  0.143696  0.628625  1
  O  O23  1  0.551839  0.356304  0.628625  1
  O  O24  1  0.448157  0.643688  0.371432  1
  O  O25  1  0.448157  0.856312  0.371432  1
  O  O26  1  0.406170  0.026998  0.164461  1
  O  O27  1  0.406170  0.473002  0.164461  1
  O  O28  1  0.654501  0.250000  0.774969  1
  O  O29  1  0.555670  0.554495  0.291057  1
  O  O30  1  0.555670  0.945505  0.291057  1
  O  O31  1  0.513519  0.202974  0.059919  1
  O  O32  1  0.513519  0.297027  0.059919  1
  O  O33  1  0.613037  0.118932  0.205070  1
  O  O34  1  0.613037  0.381068  0.205070  1
  O  O35  1  0.841669  0.595440  0.604522  1
  O  O36  1  0.841669  0.904560  0.604522  1
  O  O37  1  0.861785  0.020875  0.631968  1
  O  O38  1  0.861785  0.479125  0.631968  1
  O  O39  1  0.879937  0.192805  0.406110  1
  O  O40  1  0.879937  0.307195  0.406110  1
  O  O41  1  0.827736  0.750000  0.203683  1
  O  O42  1  0.839729  0.623316  0.236399  1
  O  O43  1  0.839729  0.876684  0.236399  1
  O  O44  1  0.871099  0.049625  0.000168  1
  O  O45  1  0.871099  0.450375  0.000168  1
  O  O46  1  0.944186  0.164371  0.053122  1
  O  O47  1  0.444360  0.445503  0.708895  1
  P  P48  1  0.240829  0.668272  0.804398  1
  P  P49  1  0.240829  0.831728  0.804398  1
  P  P50  1  0.331600  0.108478  0.620135  1
  P  P51  1  0.331600  0.391522  0.620135  1
  P  P52  1  0.464999  0.250000  0.910212  1
  P  P53  1  0.290624  0.523438  0.203525  1
  P  P54  1  0.290624  0.976562  0.203525  1
  P  P55  1  0.709449  0.023451  0.796422  1
  P  P56  1  0.709449  0.476549  0.796422  1
  P  P57  1  0.534929  0.750000  0.089855  1
  P  P58  1  0.668417  0.608475  0.379902  1
  P  P59  1  0.668417  0.891525  0.379902  1
  P  P60  1  0.759131  0.168276  0.195614  1
  P  P61  1  0.759131  0.331724  0.195614  1
  V  V62  1  0.180213  0.546956  0.689687  1
  V  V63  1  0.180213  0.953044  0.689687  1
  V  V64  1  0.109676  0.685897  0.275172  1
  V  V65  1  0.109676  0.814103  0.275172  1
  V  V66  1  0.206342  0.099036  0.086584  1
  V  V67  1  0.206342  0.400964  0.086584  1
  V  V68  1  0.793694  0.599011  0.913439  1
  V  V69  1  0.793694  0.900989  0.913439  1
  V  V70  1  0.890268  0.185903  0.724819  1
  V  V71  1  0.890268  0.314097  0.724819  1
  V  V72  1  0.819843  0.046973  0.310247  1
  V  V73  1  0.819843  0.453027  0.310247  1
