# generated using pymatgen
data_LiFe(PO3)4
_symmetry_space_group_name_H-M   'P 1'
_cell_length_a   9.49401952
_cell_length_b   10.50089944
_cell_length_c   9.09949699
_cell_angle_alpha   90.00000000
_cell_angle_beta   90.00000000
_cell_angle_gamma   90.00000000
_symmetry_Int_Tables_number   1
_chemical_formula_structural   LiFe(PO3)4
_chemical_formula_sum   'Li4 Fe4 P16 O48'
_cell_volume   907.18112482
_cell_formula_units_Z   4
loop_
 _symmetry_equiv_pos_site_id
 _symmetry_equiv_pos_as_xyz
  1  'x, y, z'
loop_
 _atom_site_type_symbol
 _atom_site_label
 _atom_site_symmetry_multiplicity
 _atom_site_fract_x
 _atom_site_fract_y
 _atom_site_fract_z
 _atom_site_occupancy
  Li  Li0  1  0.002206  0.809936  0.103044  1
  Li  Li1  1  0.997794  0.190064  0.603044  1
  Li  Li2  1  0.502206  0.690064  0.396955  1
  Li  Li3  1  0.497794  0.309936  0.896956  1
  O  O4  1  0.363724  0.989169  0.124591  1
  O  O5  1  0.887144  0.055918  0.242017  1
  O  O6  1  0.884219  0.296061  0.100293  1
  O  O7  1  0.899951  0.719388  0.245769  1
  O  O8  1  0.100049  0.280612  0.745770  1
  O  O9  1  0.102518  0.720542  0.928193  1
  O  O10  1  0.115781  0.703939  0.600293  1
  O  O11  1  0.112856  0.944082  0.742017  1
  O  O12  1  0.126572  0.377950  0.250765  1
  O  O13  1  0.126437  0.137475  0.424841  1
  O  O14  1  0.136276  0.489169  0.875409  1
  O  O15  1  0.145919  0.136015  0.105441  1
  O  O16  1  0.146873  0.873074  0.216495  1
  O  O17  1  0.177943  0.468262  0.602520  1
  O  O18  1  0.198200  0.586229  0.374889  1
  O  O19  1  0.207095  0.577315  0.116394  1
  O  O20  1  0.292905  0.077315  0.883606  1
  O  O21  1  0.301800  0.086229  0.625110  1
  O  O22  1  0.322057  0.968262  0.397480  1
  O  O23  1  0.353127  0.373074  0.783504  1
  O  O24  1  0.354081  0.636015  0.894558  1
  O  O25  1  0.897482  0.279458  0.428193  1
  O  O26  1  0.373563  0.637475  0.575160  1
  O  O27  1  0.373428  0.877950  0.749234  1
  O  O28  1  0.387144  0.444082  0.257984  1
  O  O29  1  0.384219  0.203939  0.399707  1
  O  O30  1  0.397482  0.220542  0.071807  1
  O  O31  1  0.399951  0.780612  0.254231  1
  O  O32  1  0.600049  0.219388  0.754230  1
  O  O33  1  0.602518  0.779458  0.571807  1
  O  O34  1  0.615781  0.796061  0.899707  1
  O  O35  1  0.612856  0.555918  0.757983  1
  O  O36  1  0.626572  0.122049  0.249235  1
  O  O37  1  0.626437  0.362525  0.075160  1
  O  O38  1  0.636276  0.010831  0.624591  1
  O  O39  1  0.645919  0.363985  0.394559  1
  O  O40  1  0.646873  0.626926  0.283505  1
  O  O41  1  0.677943  0.031738  0.897480  1
  O  O42  1  0.698200  0.913770  0.125111  1
  O  O43  1  0.707095  0.922685  0.383607  1
  O  O44  1  0.792905  0.422685  0.616394  1
  O  O45  1  0.801800  0.413770  0.874890  1
  O  O46  1  0.822057  0.531738  0.102519  1
  O  O47  1  0.853127  0.126926  0.716496  1
  O  O48  1  0.854081  0.863985  0.605442  1
  O  O49  1  0.873428  0.622049  0.750766  1
  O  O50  1  0.873564  0.862525  0.924840  1
  O  O51  1  0.863724  0.510831  0.375410  1
  P  P52  1  0.765758  0.517646  0.750456  1
  P  P53  1  0.780688  0.394288  0.046958  1
  P  P54  1  0.734242  0.017646  0.249545  1
  P  P55  1  0.793862  0.388681  0.447121  1
  P  P56  1  0.200987  0.387302  0.755163  1
  P  P57  1  0.206138  0.611320  0.947121  1
  P  P58  1  0.219312  0.605712  0.546959  1
  P  P59  1  0.234242  0.482354  0.250456  1
  P  P60  1  0.265758  0.982354  0.749545  1
  P  P61  1  0.280688  0.105712  0.453041  1
  P  P62  1  0.293862  0.111319  0.052878  1
  P  P63  1  0.299013  0.887302  0.244836  1
  P  P64  1  0.700987  0.112698  0.744837  1
  P  P65  1  0.706138  0.888681  0.552879  1
  P  P66  1  0.719312  0.894288  0.953041  1
  P  P67  1  0.799013  0.612697  0.255163  1
  Fe  Fe68  1  0.987398  0.786210  0.748799  1
  Fe  Fe69  1  0.512602  0.286210  0.251202  1
  Fe  Fe70  1  0.487398  0.713790  0.751201  1
  Fe  Fe71  1  0.012602  0.213790  0.248799  1
