# generated using pymatgen
data_CoO2
_symmetry_space_group_name_H-M   'P 1'
_cell_length_a   2.83509431
_cell_length_b   5.02847666
_cell_length_c   4.92828833
_cell_angle_alpha   99.41313948
_cell_angle_beta   89.99999409
_cell_angle_gamma   73.62613499
_symmetry_Int_Tables_number   1
_chemical_formula_structural   CoO2
_chemical_formula_sum   'Co2 O4'
_cell_volume   66.42255689
_cell_formula_units_Z   2
loop_
 _symmetry_equiv_pos_site_id
 _symmetry_equiv_pos_as_xyz
  1  'x, y, z'
loop_
 _atom_site_type_symbol
 _atom_site_label
 _atom_site_symmetry_multiplicity
 _atom_site_fract_x
 _atom_site_fract_y
 _atom_site_fract_z
 _atom_site_occupancy
  Co  Co0  1  0.000000  0.000000  0.000000  1
  Co  Co1  1  0.500000  0.000000  0.500000  1
  O  O2  1  0.901031  0.197938  0.365972  1
  O  O3  1  0.401033  0.197934  0.865986  1
  O  O4  1  0.098969  0.802062  0.634028  1
  O  O5  1  0.598967  0.802066  0.134014  1
