# generated using pymatgen
data_LiMo2P3O13
_symmetry_space_group_name_H-M   'P 1'
_cell_length_a   6.48928023
_cell_length_b   22.62171212
_cell_length_c   7.15596048
_cell_angle_alpha   90.00000000
_cell_angle_beta   81.10122169
_cell_angle_gamma   90.00000000
_symmetry_Int_Tables_number   1
_chemical_formula_structural   LiMo2P3O13
_chemical_formula_sum   'Li4 Mo8 P12 O52'
_cell_volume   1037.84067201
_cell_formula_units_Z   4
loop_
 _symmetry_equiv_pos_site_id
 _symmetry_equiv_pos_as_xyz
  1  'x, y, z'
loop_
 _atom_site_type_symbol
 _atom_site_label
 _atom_site_symmetry_multiplicity
 _atom_site_fract_x
 _atom_site_fract_y
 _atom_site_fract_z
 _atom_site_occupancy
  Li  Li0  1  0.271315  0.349929  0.787196  1
  Li  Li1  1  0.228685  0.849929  0.712803  1
  Li  Li2  1  0.771314  0.150071  0.287197  1
  Li  Li3  1  0.728686  0.650071  0.212804  1
  O  O4  1  0.229237  0.659870  0.705142  1
  O  O5  1  0.858207  0.876148  0.823224  1
  O  O6  1  0.985119  0.434218  0.205011  1
  O  O7  1  0.897259  0.085341  0.456738  1
  O  O8  1  0.776516  0.386609  0.981250  1
  O  O9  1  0.903679  0.941066  0.229567  1
  O  O10  1  0.789617  0.977659  0.697573  1
  O  O11  1  0.779810  0.154588  0.768503  1
  O  O12  1  0.027418  0.309538  0.560871  1
  O  O13  1  0.141793  0.123852  0.176777  1
  O  O14  1  0.014880  0.565782  0.794990  1
  O  O15  1  0.102742  0.914659  0.543262  1
  O  O16  1  0.223485  0.613391  0.018750  1
  O  O17  1  0.096321  0.058934  0.770433  1
  O  O18  1  0.205630  0.237572  0.316756  1
  O  O19  1  0.220189  0.845412  0.231497  1
  O  O20  1  0.210384  0.022341  0.302427  1
  O  O21  1  0.102729  0.795343  0.947978  1
  O  O22  1  0.217213  0.439815  0.514494  1
  O  O23  1  0.289617  0.522341  0.197573  1
  O  O24  1  0.279811  0.345412  0.268503  1
  O  O25  1  0.294370  0.737572  0.183245  1
  O  O26  1  0.276515  0.113391  0.481249  1
  O  O27  1  0.972582  0.690462  0.439130  1
  O  O28  1  0.262195  0.776137  0.557510  1
  O  O29  1  0.237805  0.276137  0.942489  1
  O  O30  1  0.270763  0.159870  0.794859  1
  O  O31  1  0.358207  0.623852  0.323223  1
  O  O32  1  0.282789  0.939815  0.985506  1
  O  O33  1  0.397271  0.295343  0.552022  1
  O  O34  1  0.527419  0.190462  0.060871  1
  O  O35  1  0.403679  0.558934  0.729567  1
  O  O36  1  0.514881  0.934218  0.294990  1
  O  O37  1  0.397258  0.414659  0.956739  1
  O  O38  1  0.602741  0.585341  0.043261  1
  O  O39  1  0.485120  0.065782  0.705010  1
  O  O40  1  0.596322  0.441066  0.270432  1
  O  O41  1  0.472582  0.809538  0.939129  1
  O  O42  1  0.602729  0.704657  0.447978  1
  O  O43  1  0.717212  0.060185  0.014493  1
  O  O44  1  0.641794  0.376148  0.676776  1
  O  O45  1  0.729236  0.840130  0.205141  1
  O  O46  1  0.762194  0.723863  0.057511  1
  O  O47  1  0.737806  0.223863  0.442490  1
  O  O48  1  0.770764  0.340130  0.294858  1
  O  O49  1  0.723484  0.886609  0.518750  1
  O  O50  1  0.705629  0.262428  0.816757  1
  O  O51  1  0.720190  0.654588  0.731498  1
  O  O52  1  0.710383  0.477659  0.802427  1
  O  O53  1  0.782788  0.560185  0.485506  1
  O  O54  1  0.897272  0.204657  0.052022  1
  O  O55  1  0.794371  0.762428  0.683244  1
  P  P56  1  0.878780  0.916221  0.650035  1
  P  P57  1  0.730302  0.203595  0.918348  1
  P  P58  1  0.769699  0.703595  0.581653  1
  P  P59  1  0.781981  0.400835  0.200731  1
  P  P60  1  0.718019  0.900835  0.299269  1
  P  P61  1  0.621220  0.416221  0.849966  1
  P  P62  1  0.378781  0.583779  0.150035  1
  P  P63  1  0.281982  0.099165  0.700731  1
  P  P64  1  0.121219  0.083779  0.349965  1
  P  P65  1  0.269699  0.796405  0.081652  1
  P  P66  1  0.218018  0.599165  0.799269  1
  P  P67  1  0.230302  0.296405  0.418348  1
  Mo  Mo68  1  0.222749  0.206984  0.042698  1
  Mo  Mo69  1  0.221334  0.935745  0.225414  1
  Mo  Mo70  1  0.278665  0.435745  0.274587  1
  Mo  Mo71  1  0.277251  0.706984  0.457303  1
  Mo  Mo72  1  0.722748  0.293016  0.542697  1
  Mo  Mo73  1  0.721334  0.564255  0.725414  1
  Mo  Mo74  1  0.778666  0.064255  0.774586  1
  Mo  Mo75  1  0.777252  0.793016  0.957303  1
