# generated using pymatgen
data_Mg(FeO2)2
_symmetry_space_group_name_H-M   'P 1'
_cell_length_a   6.03800054
_cell_length_b   6.04021420
_cell_length_c   24.12836709
_cell_angle_alpha   59.95544875
_cell_angle_beta   60.04640195
_cell_angle_gamma   59.98787669
_symmetry_Int_Tables_number   1
_chemical_formula_structural   Mg(FeO2)2
_chemical_formula_sum   'Mg8 Fe16 O32'
_cell_volume   622.19159591
_cell_formula_units_Z   8
loop_
 _symmetry_equiv_pos_site_id
 _symmetry_equiv_pos_as_xyz
  1  'x, y, z'
loop_
 _atom_site_type_symbol
 _atom_site_label
 _atom_site_symmetry_multiplicity
 _atom_site_fract_x
 _atom_site_fract_y
 _atom_site_fract_z
 _atom_site_occupancy
  Mg  Mg0  1  0.131709  0.123154  0.030496  1
  Mg  Mg1  1  0.002472  0.498924  0.124920  1
  Mg  Mg2  1  0.130181  0.121708  0.281601  1
  Mg  Mg3  1  0.000452  0.498967  0.375404  1
  Mg  Mg4  1  0.000307  0.500196  0.624825  1
  Mg  Mg5  1  0.500429  0.500485  0.499650  1
  Mg  Mg6  1  0.001987  0.500333  0.874337  1
  Mg  Mg7  1  0.500512  0.500700  0.749522  1
  Fe  Fe8  1  0.494791  0.497432  0.124756  1
  Fe  Fe9  1  0.494534  0.496729  0.253002  1
  Fe  Fe10  1  0.494791  0.008751  0.124756  1
  Fe  Fe11  1  0.129984  0.119426  0.532791  1
  Fe  Fe12  1  0.497295  0.499432  0.375029  1
  Fe  Fe13  1  0.866516  0.878303  0.219219  1
  Fe  Fe14  1  0.131865  0.120889  0.781589  1
  Fe  Fe15  1  0.497295  0.003158  0.375029  1
  Fe  Fe16  1  0.500292  0.500454  0.624700  1
  Fe  Fe17  1  0.869575  0.880794  0.467209  1
  Fe  Fe18  1  0.500292  0.000453  0.624700  1
  Fe  Fe19  1  0.498230  0.005580  0.874397  1
  Fe  Fe20  1  0.498230  0.498603  0.874397  1
  Fe  Fe21  1  0.869551  0.880283  0.717471  1
  Fe  Fe22  1  0.494391  0.497238  0.002783  1
  Fe  Fe23  1  0.866182  0.877807  0.969551  1
  O  O24  1  0.267682  0.256209  0.063827  1
  O  O25  1  0.267792  0.255594  0.180255  1
  O  O26  1  0.267682  0.720801  0.063827  1
  O  O27  1  0.724095  0.258714  0.064619  1
  O  O28  1  0.269741  0.743963  0.185583  1
  O  O29  1  0.268451  0.256087  0.314389  1
  O  O30  1  0.739532  0.270807  0.186047  1
  O  O31  1  0.259683  0.252256  0.433951  1
  O  O32  1  0.268451  0.717906  0.314389  1
  O  O33  1  0.739571  0.745585  0.067315  1
  O  O34  1  0.721232  0.259157  0.315114  1
  O  O35  1  0.739532  0.745471  0.186047  1
  O  O36  1  0.259855  0.249774  0.565093  1
  O  O37  1  0.269053  0.746950  0.434261  1
  O  O38  1  0.741487  0.268553  0.434763  1
  O  O39  1  0.261767  0.254367  0.682375  1
  O  O40  1  0.259855  0.729998  0.565093  1
  O  O41  1  0.740076  0.745779  0.317091  1
  O  O42  1  0.729239  0.254149  0.565616  1
  O  O43  1  0.741487  0.750910  0.434763  1
  O  O44  1  0.269530  0.745633  0.684801  1
  O  O45  1  0.258638  0.249551  0.814745  1
  O  O46  1  0.740207  0.268502  0.685338  1
  O  O47  1  0.270001  0.257924  0.928538  1
  O  O48  1  0.258638  0.732832  0.814745  1
  O  O49  1  0.738006  0.745588  0.567705  1
  O  O50  1  0.732470  0.253343  0.815211  1
  O  O51  1  0.740207  0.749940  0.685338  1
  O  O52  1  0.270317  0.742788  0.936026  1
  O  O53  1  0.738347  0.270948  0.936508  1
  O  O54  1  0.737163  0.745453  0.817983  1
  O  O55  1  0.738347  0.744672  0.936508  1
