# generated using pymatgen
data_Cr(PO3)4
_symmetry_space_group_name_H-M   'P 1'
_cell_length_a   5.12709893
_cell_length_b   13.60230240
_cell_length_c   7.21892953
_cell_angle_alpha   90.00000000
_cell_angle_beta   99.14132782
_cell_angle_gamma   90.00000000
_symmetry_Int_Tables_number   1
_chemical_formula_structural   Cr(PO3)4
_chemical_formula_sum   'Cr2 P8 O24'
_cell_volume   497.05658210
_cell_formula_units_Z   2
loop_
 _symmetry_equiv_pos_site_id
 _symmetry_equiv_pos_as_xyz
  1  'x, y, z'
loop_
 _atom_site_type_symbol
 _atom_site_label
 _atom_site_symmetry_multiplicity
 _atom_site_fract_x
 _atom_site_fract_y
 _atom_site_fract_z
 _atom_site_occupancy
  Cr  Cr0  1  0.493173  0.265175  0.492907  1
  Cr  Cr1  1  0.506827  0.765175  0.507093  1
  P  P2  1  0.976174  0.402623  0.443983  1
  P  P3  1  0.856234  0.828916  0.902875  1
  P  P4  1  0.782151  0.177041  0.881014  1
  P  P5  1  0.143766  0.328916  0.097125  1
  P  P6  1  0.010534  0.126212  0.546307  1
  P  P7  1  0.989466  0.626212  0.453693  1
  P  P8  1  0.217849  0.677041  0.118986  1
  P  P9  1  0.023826  0.902623  0.556017  1
  O  O10  1  0.372813  0.281760  0.231188  1
  O  O11  1  0.700307  0.387808  0.488653  1
  O  O12  1  0.383585  0.752622  0.247174  1
  O  O13  1  0.028074  0.895563  0.777019  1
  O  O14  1  0.791508  0.184792  0.434468  1
  O  O15  1  0.299693  0.887808  0.511347  1
  O  O16  1  0.939388  0.013388  0.506185  1
  O  O17  1  0.015386  0.139687  0.766569  1
  O  O18  1  0.285006  0.142587  0.499813  1
  O  O19  1  0.370674  0.595828  0.051098  1
  O  O20  1  0.054194  0.736694  0.951274  1
  O  O21  1  0.627187  0.781760  0.768812  1
  O  O22  1  0.187313  0.338643  0.548993  1
  O  O23  1  0.945806  0.236694  0.048726  1
  O  O24  1  0.205249  0.384381  0.934376  1
  O  O25  1  0.984614  0.639687  0.233431  1
  O  O26  1  0.794751  0.884381  0.065624  1
  O  O27  1  0.060612  0.513388  0.493815  1
  O  O28  1  0.208492  0.684792  0.565532  1
  O  O29  1  0.616415  0.252622  0.752826  1
  O  O30  1  0.714994  0.642587  0.500187  1
  O  O31  1  0.971926  0.395563  0.222981  1
  O  O32  1  0.812687  0.838643  0.451007  1
  O  O33  1  0.629326  0.095828  0.948902  1
