# generated using pymatgen
data_BiO2
_symmetry_space_group_name_H-M   'P 1'
_cell_length_a   5.28161867
_cell_length_b   5.67722326
_cell_length_c   6.80898436
_cell_angle_alpha   106.59969660
_cell_angle_beta   112.82028168
_cell_angle_gamma   90.00000225
_symmetry_Int_Tables_number   1
_chemical_formula_structural   BiO2
_chemical_formula_sum   'Bi4 O8'
_cell_volume   178.91868757
_cell_formula_units_Z   4
loop_
 _symmetry_equiv_pos_site_id
 _symmetry_equiv_pos_as_xyz
  1  'x, y, z'
loop_
 _atom_site_type_symbol
 _atom_site_label
 _atom_site_symmetry_multiplicity
 _atom_site_fract_x
 _atom_site_fract_y
 _atom_site_fract_z
 _atom_site_occupancy
  Bi  Bi0  1  0.729106  0.250000  1.000000  1
  Bi  Bi1  1  0.270894  0.750000  0.000000  1
  Bi  Bi2  1  0.000000  0.000000  0.500000  1
  Bi  Bi3  1  0.500000  0.500000  0.500000  1
  O  O4  1  0.321325  0.021684  0.814642  1
  O  O5  1  0.114894  0.650123  0.351314  1
  O  O6  1  0.885106  0.349877  0.648686  1
  O  O7  1  0.763580  0.849877  0.648686  1
  O  O8  1  0.236420  0.150123  0.351314  1
  O  O9  1  0.493318  0.521684  0.814642  1
  O  O10  1  0.506682  0.478316  0.185358  1
  O  O11  1  0.678675  0.978316  0.185358  1
