# generated using pymatgen
data_CuO2
_symmetry_space_group_name_H-M   'P 1'
_cell_length_a   5.83183480
_cell_length_b   5.83183493
_cell_length_c   5.83183438
_cell_angle_alpha   59.99999733
_cell_angle_beta   59.99999662
_cell_angle_gamma   60.00000180
_symmetry_Int_Tables_number   1
_chemical_formula_structural   CuO2
_chemical_formula_sum   'Cu4 O8'
_cell_volume   140.24926900
_cell_formula_units_Z   4
loop_
 _symmetry_equiv_pos_site_id
 _symmetry_equiv_pos_as_xyz
  1  'x, y, z'
loop_
 _atom_site_type_symbol
 _atom_site_label
 _atom_site_symmetry_multiplicity
 _atom_site_fract_x
 _atom_site_fract_y
 _atom_site_fract_z
 _atom_site_occupancy
  O  O0  1  0.734308  0.734308  0.297077  1
  O  O1  1  0.734308  0.734308  0.734308  1
  O  O2  1  0.265693  0.265692  0.702922  1
  O  O3  1  0.265693  0.702923  0.265692  1
  O  O4  1  0.265693  0.265692  0.265692  1
  O  O5  1  0.702923  0.265692  0.265692  1
  O  O6  1  0.734309  0.297076  0.734309  1
  O  O7  1  0.297078  0.734308  0.734309  1
  Cu  Cu8  1  0.499999  0.500001  0.500000  1
  Cu  Cu9  1  0.500001  0.000000  0.500000  1
  Cu  Cu10  1  0.000001  0.500001  0.500000  1
  Cu  Cu11  1  0.499999  0.500001  0.000000  1
