# generated using pymatgen
data_FePO4
_symmetry_space_group_name_H-M   'P 1'
_cell_length_a   10.49703813
_cell_length_b   7.29657597
_cell_length_c   5.24797016
_cell_angle_alpha   90.00000000
_cell_angle_beta   90.00000000
_cell_angle_gamma   90.00000000
_symmetry_Int_Tables_number   1
_chemical_formula_structural   FePO4
_chemical_formula_sum   'Fe4 P4 O16'
_cell_volume   401.95481953
_cell_formula_units_Z   4
loop_
 _symmetry_equiv_pos_site_id
 _symmetry_equiv_pos_as_xyz
  1  'x, y, z'
loop_
 _atom_site_type_symbol
 _atom_site_label
 _atom_site_symmetry_multiplicity
 _atom_site_fract_x
 _atom_site_fract_y
 _atom_site_fract_z
 _atom_site_occupancy
  Fe  Fe0  1  0.151169  0.712387  0.690200  1
  Fe  Fe1  1  0.348831  0.212387  0.190200  1
  Fe  Fe2  1  0.848831  0.212387  0.309800  1
  Fe  Fe3  1  0.651169  0.712387  0.809800  1
  P  P4  1  0.903513  0.461641  0.811393  1
  P  P5  1  0.596487  0.961641  0.311393  1
  P  P6  1  0.096487  0.961641  0.188607  1
  P  P7  1  0.403513  0.461641  0.688607  1
  O  O8  1  0.364881  0.293651  0.850607  1
  O  O9  1  0.387990  0.411664  0.403762  1
  O  O10  1  0.612010  0.911664  0.596238  1
  O  O11  1  0.112010  0.911664  0.903762  1
  O  O12  1  0.180967  0.129687  0.250712  1
  O  O13  1  0.956215  0.011095  0.243702  1
  O  O14  1  0.887990  0.411664  0.096238  1
  O  O15  1  0.319033  0.629687  0.750712  1
  O  O16  1  0.819033  0.629687  0.749288  1
  O  O17  1  0.864881  0.293651  0.649393  1
  O  O18  1  0.680967  0.129687  0.249288  1
  O  O19  1  0.043785  0.511095  0.756297  1
  O  O20  1  0.635119  0.793651  0.149393  1
  O  O21  1  0.135119  0.793651  0.350607  1
  O  O22  1  0.543785  0.511095  0.743703  1
  O  O23  1  0.456215  0.011095  0.256297  1
