# generated using pymatgen
data_CuP4O11
_symmetry_space_group_name_H-M   'P 1'
_cell_length_a   9.38949248
_cell_length_b   9.44567077
_cell_length_c   10.72951709
_cell_angle_alpha   69.37939792
_cell_angle_beta   70.36182605
_cell_angle_gamma   89.45298481
_symmetry_Int_Tables_number   1
_chemical_formula_structural   CuP4O11
_chemical_formula_sum   'Cu4 P16 O44'
_cell_volume   832.41477893
_cell_formula_units_Z   4
loop_
 _symmetry_equiv_pos_site_id
 _symmetry_equiv_pos_as_xyz
  1  'x, y, z'
loop_
 _atom_site_type_symbol
 _atom_site_label
 _atom_site_symmetry_multiplicity
 _atom_site_fract_x
 _atom_site_fract_y
 _atom_site_fract_z
 _atom_site_occupancy
  Cu  Cu0  1  0.245079  0.226207  0.015023  1
  Cu  Cu1  1  0.754921  0.773793  0.984977  1
  Cu  Cu2  1  0.271374  0.728162  0.502405  1
  Cu  Cu3  1  0.728626  0.271838  0.497595  1
  P  P4  1  0.919224  0.240600  0.926864  1
  P  P5  1  0.080776  0.759400  0.073136  1
  P  P6  1  0.945704  0.583441  0.775725  1
  P  P7  1  0.054296  0.416559  0.224275  1
  P  P8  1  0.090258  0.902855  0.284258  1
  P  P9  1  0.909742  0.097145  0.715742  1
  P  P10  1  0.242136  0.082921  0.564112  1
  P  P11  1  0.757864  0.917079  0.435888  1
  P  P12  1  0.735249  0.584632  0.613869  1
  P  P13  1  0.264751  0.415368  0.386131  1
  P  P14  1  0.594852  0.900286  0.239869  1
  P  P15  1  0.405148  0.099714  0.760131  1
  P  P16  1  0.404732  0.550709  0.751634  1
  P  P17  1  0.595268  0.449291  0.248366  1
  P  P18  1  0.593773  0.233712  0.095767  1
  P  P19  1  0.406227  0.766288  0.904233  1
  O  O20  1  0.738656  0.237039  0.962480  1
  O  O21  1  0.261344  0.762961  0.037520  1
  O  O22  1  0.309140  0.399639  0.827453  1
  O  O23  1  0.690860  0.600361  0.172547  1
  O  O24  1  0.444308  0.803920  0.316299  1
  O  O25  1  0.555692  0.196080  0.683701  1
  O  O26  1  0.860446  0.536251  0.683182  1
  O  O27  1  0.139554  0.463749  0.316818  1
  O  O28  1  0.578610  0.077943  0.223077  1
  O  O29  1  0.421390  0.922057  0.776923  1
  O  O30  1  0.205560  0.037864  0.187421  1
  O  O31  1  0.794440  0.962136  0.812579  1
  O  O32  1  0.415640  0.649424  0.604050  1
  O  O33  1  0.584360  0.350576  0.395950  1
  O  O34  1  0.982750  0.415265  0.857752  1
  O  O35  1  0.017250  0.584735  0.142248  1
  O  O36  1  0.347589  0.645605  0.856311  1
  O  O37  1  0.652411  0.354395  0.143689  1
  O  O38  1  0.166785  0.364488  0.119193  1
  O  O39  1  0.833215  0.635512  0.880807  1
  O  O40  1  0.319453  0.965614  0.517524  1
  O  O41  1  0.680547  0.034386  0.482476  1
  O  O42  1  0.303068  0.143058  0.658818  1
  O  O43  1  0.696932  0.856942  0.341182  1
  O  O44  1  0.123374  0.781331  0.401488  1
  O  O45  1  0.876626  0.218669  0.598512  1
  O  O46  1  0.095295  0.677884  0.682541  1
  O  O47  1  0.904705  0.322116  0.317459  1
  O  O48  1  0.308531  0.093832  0.905046  1
  O  O49  1  0.691469  0.906168  0.094954  1
  O  O50  1  0.970599  0.183667  0.798973  1
  O  O51  1  0.029401  0.816333  0.201027  1
  O  O52  1  0.461435  0.266268  0.052972  1
  O  O53  1  0.538565  0.733732  0.947028  1
  O  O54  1  0.750353  0.528133  0.499878  1
  O  O55  1  0.249647  0.471867  0.500122  1
  O  O56  1  0.249725  0.233705  0.431475  1
  O  O57  1  0.750275  0.766295  0.568525  1
  O  O58  1  0.579564  0.530737  0.748022  1
  O  O59  1  0.420436  0.469263  0.251978  1
  O  O60  1  0.933930  0.967583  0.351391  1
  O  O61  1  0.066070  0.032417  0.648609  1
  O  O62  1  0.968738  0.159227  0.046203  1
  O  O63  1  0.031262  0.840773  0.953797  1
