# generated using pymatgen
data_LiMn4(PO4)3
_symmetry_space_group_name_H-M   'P 1'
_cell_length_a   6.82885556
_cell_length_b   6.82885518
_cell_length_c   10.92098126
_cell_angle_alpha   71.78109707
_cell_angle_beta   71.78109831
_cell_angle_gamma   89.99999823
_symmetry_Int_Tables_number   1
_chemical_formula_structural   LiMn4(PO4)3
_chemical_formula_sum   'Li2 Mn8 P6 O24'
_cell_volume   456.79472192
_cell_formula_units_Z   2
loop_
 _symmetry_equiv_pos_site_id
 _symmetry_equiv_pos_as_xyz
  1  'x, y, z'
loop_
 _atom_site_type_symbol
 _atom_site_label
 _atom_site_symmetry_multiplicity
 _atom_site_fract_x
 _atom_site_fract_y
 _atom_site_fract_z
 _atom_site_occupancy
  Li  Li0  1  0.500000  0.500000  0.000000  1
  Li  Li1  1  0.250000  0.750000  0.500000  1
  Mn  Mn2  1  0.639489  0.125000  0.250000  1
  Mn  Mn3  1  0.981560  0.481560  0.036879  1
  Mn  Mn4  1  0.231560  0.231560  0.536879  1
  Mn  Mn5  1  0.518440  0.018440  0.963121  1
  Mn  Mn6  1  0.375000  0.360511  0.750000  1
  Mn  Mn7  1  0.110511  0.625000  0.250000  1
  Mn  Mn8  1  0.768440  0.768440  0.463121  1
  Mn  Mn9  1  0.875000  0.889489  0.750000  1
  P  P10  1  0.000000  0.000000  0.000000  1
  P  P11  1  0.222520  0.125000  0.250000  1
  P  P12  1  0.750000  0.250000  0.500000  1
  P  P13  1  0.527480  0.625000  0.250000  1
  P  P14  1  0.875000  0.472520  0.750000  1
  P  P15  1  0.375000  0.777480  0.750000  1
  O  O16  1  0.905356  0.146962  0.081973  1
  O  O17  1  0.427411  0.156387  0.124069  1
  O  O18  1  0.301480  0.093613  0.375931  1
  O  O19  1  0.737328  0.103038  0.418027  1
  O  O20  1  0.122537  0.328840  0.210812  1
  O  O21  1  0.896962  0.155356  0.581973  1
  O  O22  1  0.521065  0.262672  0.581973  1
  O  O23  1  0.228935  0.094644  0.918027  1
  O  O24  1  0.666650  0.460348  0.210812  1
  O  O25  1  0.844644  0.478935  0.418027  1
  O  O26  1  0.322589  0.530456  0.375931  1
  O  O27  1  0.078840  0.372537  0.710812  1
  O  O28  1  0.671160  0.333350  0.789188  1
  O  O29  1  0.448520  0.719544  0.124069  1
  O  O30  1  0.012672  0.771065  0.081973  1
  O  O31  1  0.627463  0.789652  0.289188  1
  O  O32  1  0.906387  0.677411  0.624069  1
  O  O33  1  0.843613  0.551480  0.875931  1
  O  O34  1  0.469544  0.698520  0.624069  1
  O  O35  1  0.280456  0.572589  0.875931  1
  O  O36  1  0.083350  0.921160  0.289188  1
  O  O37  1  0.210348  0.916650  0.710812  1
  O  O38  1  0.539652  0.877463  0.789188  1
  O  O39  1  0.853038  0.987328  0.918027  1
