# generated using pymatgen
data_Mg3(Mo3Se4)4
_symmetry_space_group_name_H-M   'P 1'
_cell_length_a   13.86824100
_cell_length_b   6.99164718
_cell_length_c   6.94977663
_cell_angle_alpha   93.11872837
_cell_angle_beta   95.24694608
_cell_angle_gamma   94.30119074
_symmetry_Int_Tables_number   1
_chemical_formula_structural   Mg3(Mo3Se4)4
_chemical_formula_sum   'Mg3 Mo12 Se16'
_cell_volume   667.87492197
_cell_formula_units_Z   1
loop_
 _symmetry_equiv_pos_site_id
 _symmetry_equiv_pos_as_xyz
  1  'x, y, z'
loop_
 _atom_site_type_symbol
 _atom_site_label
 _atom_site_symmetry_multiplicity
 _atom_site_fract_x
 _atom_site_fract_y
 _atom_site_fract_z
 _atom_site_occupancy
  Mg  Mg0  1  0.319898  0.956360  0.047686  1
  Mg  Mg1  1  0.678540  0.044590  0.951436  1
  Mg  Mg2  1  0.989547  0.026311  0.594177  1
  Mo  Mo3  1  0.120534  0.542990  0.416631  1
  Mo  Mo4  1  0.230984  0.580024  0.762213  1
  Mo  Mo5  1  0.208350  0.243069  0.548277  1
  Mo  Mo6  1  0.294157  0.755001  0.452399  1
  Mo  Mo7  1  0.271299  0.412158  0.243136  1
  Mo  Mo8  1  0.382143  0.454215  0.587857  1
  Mo  Mo9  1  0.618007  0.545890  0.412130  1
  Mo  Mo10  1  0.727325  0.585066  0.753913  1
  Mo  Mo11  1  0.706148  0.241842  0.545117  1
  Mo  Mo12  1  0.792060  0.760459  0.452455  1
  Mo  Mo13  1  0.770624  0.423001  0.241801  1
  Mo  Mo14  1  0.879348  0.456384  0.582896  1
  Se  Se15  1  0.064131  0.378286  0.725728  1
  Se  Se16  1  0.149000  0.869493  0.629638  1
  Se  Se17  1  0.103816  0.219299  0.218710  1
  Se  Se18  1  0.179941  0.711133  0.119798  1
  Se  Se19  1  0.317421  0.282099  0.878740  1
  Se  Se20  1  0.402168  0.782956  0.776889  1
  Se  Se21  1  0.362549  0.126739  0.390798  1
  Se  Se22  1  0.433014  0.624618  0.274878  1
  Se  Se23  1  0.566483  0.370648  0.721496  1
  Se  Se24  1  0.637048  0.873822  0.607684  1
  Se  Se25  1  0.597539  0.217242  0.223614  1
  Se  Se26  1  0.682730  0.719146  0.121978  1
  Se  Se27  1  0.819228  0.287588  0.879670  1
  Se  Se28  1  0.897098  0.775045  0.792711  1
  Se  Se29  1  0.852217  0.127318  0.362239  1
  Se  Se30  1  0.935654  0.632206  0.285305  1
