# generated using pymatgen
data_LiSb2P5O16
_symmetry_space_group_name_H-M   'P 1'
_cell_length_a   7.39223254
_cell_length_b   10.59382139
_cell_length_c   10.60526765
_cell_angle_alpha   90.00000000
_cell_angle_beta   114.57418632
_cell_angle_gamma   90.00000000
_symmetry_Int_Tables_number   1
_chemical_formula_structural   LiSb2P5O16
_chemical_formula_sum   'Li2 Sb4 P10 O32'
_cell_volume   755.29411964
_cell_formula_units_Z   2
loop_
 _symmetry_equiv_pos_site_id
 _symmetry_equiv_pos_as_xyz
  1  'x, y, z'
loop_
 _atom_site_type_symbol
 _atom_site_label
 _atom_site_symmetry_multiplicity
 _atom_site_fract_x
 _atom_site_fract_y
 _atom_site_fract_z
 _atom_site_occupancy
  Li  Li0  1  0.344387  0.653236  0.243156  1
  Li  Li1  1  0.844387  0.346764  0.743156  1
  Sb  Sb2  1  0.712867  0.632954  0.643687  1
  Sb  Sb3  1  0.630402  0.862493  0.003366  1
  Sb  Sb4  1  0.212867  0.367046  0.143687  1
  Sb  Sb5  1  0.130402  0.137507  0.503366  1
  P  P6  1  0.989949  0.469338  0.494850  1
  P  P7  1  0.914970  0.106730  0.169847  1
  P  P8  1  0.370242  0.400738  0.482053  1
  P  P9  1  0.414970  0.893270  0.669847  1
  P  P10  1  0.494602  0.136762  0.121883  1
  P  P11  1  0.816827  0.712972  0.357800  1
  P  P12  1  0.316827  0.287028  0.857800  1
  P  P13  1  0.489949  0.530662  0.994850  1
  P  P14  1  0.994602  0.863238  0.621883  1
  P  P15  1  0.870242  0.599262  0.982053  1
  O  O16  1  0.956816  0.519022  0.618946  1
  O  O17  1  0.078788  0.587166  0.095687  1
  O  O18  1  0.486170  0.222019  0.993052  1
  O  O19  1  0.959877  0.233028  0.121344  1
  O  O20  1  0.622374  0.707487  0.373965  1
  O  O21  1  0.728202  0.130231  0.212659  1
  O  O22  1  0.405901  0.428741  0.870682  1
  O  O23  1  0.409345  0.008347  0.074859  1
  O  O24  1  0.228239  0.476461  0.539658  1
  O  O25  1  0.905901  0.571259  0.370682  1
  O  O26  1  0.456816  0.480978  0.118946  1
  O  O27  1  0.909345  0.991653  0.574859  1
  O  O28  1  0.728239  0.523539  0.039658  1
  O  O29  1  0.823655  0.770694  0.231204  1
  O  O30  1  0.914800  0.340564  0.442291  1
  O  O31  1  0.912755  0.785769  0.708153  1
  O  O32  1  0.228202  0.869769  0.712659  1
  O  O33  1  0.852466  0.003985  0.057214  1
  O  O34  1  0.459877  0.766972  0.621344  1
  O  O35  1  0.412755  0.214231  0.208153  1
  O  O36  1  0.122374  0.292513  0.873965  1
  O  O37  1  0.840250  0.531136  0.843889  1
  O  O38  1  0.578788  0.412834  0.595687  1
  O  O39  1  0.414800  0.659436  0.942291  1
  O  O40  1  0.323655  0.229306  0.731204  1
  O  O41  1  0.076357  0.058924  0.306973  1
  O  O42  1  0.340250  0.468864  0.343889  1
  O  O43  1  0.301453  0.264018  0.444706  1
  O  O44  1  0.801453  0.735982  0.944706  1
  O  O45  1  0.576357  0.941076  0.806973  1
  O  O46  1  0.986170  0.777981  0.493052  1
  O  O47  1  0.352466  0.996015  0.557214  1
