# generated using pymatgen
data_NbCo3O8
_symmetry_space_group_name_H-M   'P 1'
_cell_length_a   5.68403663
_cell_length_b   5.71382121
_cell_length_c   9.22388008
_cell_angle_alpha   89.80574816
_cell_angle_beta   90.09763782
_cell_angle_gamma   120.17349991
_symmetry_Int_Tables_number   1
_chemical_formula_structural   NbCo3O8
_chemical_formula_sum   'Nb2 Co6 O16'
_cell_volume   258.97829264
_cell_formula_units_Z   2
loop_
 _symmetry_equiv_pos_site_id
 _symmetry_equiv_pos_as_xyz
  1  'x, y, z'
loop_
 _atom_site_type_symbol
 _atom_site_label
 _atom_site_symmetry_multiplicity
 _atom_site_fract_x
 _atom_site_fract_y
 _atom_site_fract_z
 _atom_site_occupancy
  Nb  Nb0  1  0.333647  0.672821  0.498748  1
  Nb  Nb1  1  0.666353  0.339174  0.998748  1
  Co  Co2  1  0.168733  0.831094  0.214276  1
  Co  Co3  1  0.167841  0.337857  0.214210  1
  Co  Co4  1  0.663579  0.832487  0.216336  1
  Co  Co5  1  0.336421  0.168908  0.716336  1
  Co  Co6  1  0.831267  0.662362  0.714276  1
  Co  Co7  1  0.832159  0.170015  0.714210  1
  O  O8  1  0.163641  0.836898  0.600149  1
  O  O9  1  0.035505  0.513263  0.328341  1
  O  O10  1  0.339960  0.670909  0.111109  1
  O  O11  1  0.993002  0.995515  0.310650  1
  O  O12  1  0.006998  0.002513  0.810650  1
  O  O13  1  0.159323  0.324589  0.601637  1
  O  O14  1  0.485012  0.963846  0.331718  1
  O  O15  1  0.481311  0.514008  0.328594  1
  O  O16  1  0.324781  0.164984  0.102090  1
  O  O17  1  0.675219  0.840203  0.602090  1
  O  O18  1  0.514988  0.478834  0.831718  1
  O  O19  1  0.518689  0.032697  0.828594  1
  O  O20  1  0.660040  0.330950  0.611109  1
  O  O21  1  0.836359  0.673257  0.100149  1
  O  O22  1  0.964495  0.477758  0.828341  1
  O  O23  1  0.840677  0.165265  0.101637  1
