# generated using pymatgen
data_V3CrO8
_symmetry_space_group_name_H-M   'P 1'
_cell_length_a   6.38741513
_cell_length_b   6.38741556
_cell_length_c   6.47207470
_cell_angle_alpha   73.60437368
_cell_angle_beta   106.39562453
_cell_angle_gamma   145.09822669
_symmetry_Int_Tables_number   1
_chemical_formula_structural   V3CrO8
_chemical_formula_sum   'V3 Cr1 O8'
_cell_volume   144.31938843
_cell_formula_units_Z   1
loop_
 _symmetry_equiv_pos_site_id
 _symmetry_equiv_pos_as_xyz
  1  'x, y, z'
loop_
 _atom_site_type_symbol
 _atom_site_label
 _atom_site_symmetry_multiplicity
 _atom_site_fract_x
 _atom_site_fract_y
 _atom_site_fract_z
 _atom_site_occupancy
  V  V0  1  0.401326  0.598674  0.297829  1
  V  V1  1  0.600871  0.399129  0.721854  1
  V  V2  1  0.297113  0.702887  0.710719  1
  Cr  Cr3  1  0.706745  0.293255  0.311856  1
  O  O4  1  0.134129  0.865871  0.692375  1
  O  O5  1  0.243482  0.756518  0.357481  1
  O  O6  1  0.358061  0.641939  0.985706  1
  O  O7  1  0.446223  0.553777  0.636288  1
  O  O8  1  0.550882  0.449118  0.355456  1
  O  O9  1  0.638919  0.361081  0.992968  1
  O  O10  1  0.756778  0.243222  0.645575  1
  O  O11  1  0.865471  0.134529  0.291894  1
