# generated using pymatgen
data_MoO2
_symmetry_space_group_name_H-M   'P 1'
_cell_length_a   3.12489745
_cell_length_b   5.00923869
_cell_length_c   5.69340393
_cell_angle_alpha   100.15272393
_cell_angle_beta   89.99999133
_cell_angle_gamma   71.82542493
_symmetry_Int_Tables_number   1
_chemical_formula_structural   MoO2
_chemical_formula_sum   'Mo2 O4'
_cell_volume   83.20464589
_cell_formula_units_Z   2
loop_
 _symmetry_equiv_pos_site_id
 _symmetry_equiv_pos_as_xyz
  1  'x, y, z'
loop_
 _atom_site_type_symbol
 _atom_site_label
 _atom_site_symmetry_multiplicity
 _atom_site_fract_x
 _atom_site_fract_y
 _atom_site_fract_z
 _atom_site_occupancy
  Mo  Mo0  1  0.000000  0.000000  0.000000  1
  Mo  Mo1  1  0.500000  0.000000  0.500000  1
  O  O2  1  0.104896  0.790210  0.630488  1
  O  O3  1  0.604885  0.790233  0.130513  1
  O  O4  1  0.395118  0.209768  0.869488  1
  O  O5  1  0.895107  0.209791  0.369512  1
