# generated using pymatgen
data_Li8(FeO2)5
_symmetry_space_group_name_H-M   'P 1'
_cell_length_a   3.61458385
_cell_length_b   5.45234276
_cell_length_c   14.02884189
_cell_angle_alpha   91.55705581
_cell_angle_beta   82.60362412
_cell_angle_gamma   70.64640651
_symmetry_Int_Tables_number   1
_chemical_formula_structural   Li8(FeO2)5
_chemical_formula_sum   'Li8 Fe5 O10'
_cell_volume   257.96417602
_cell_formula_units_Z   1
loop_
 _symmetry_equiv_pos_site_id
 _symmetry_equiv_pos_as_xyz
  1  'x, y, z'
loop_
 _atom_site_type_symbol
 _atom_site_label
 _atom_site_symmetry_multiplicity
 _atom_site_fract_x
 _atom_site_fract_y
 _atom_site_fract_z
 _atom_site_occupancy
  Li  Li0  1  0.321277  0.893098  0.464515  1
  Li  Li1  1  0.877034  0.907737  0.338286  1
  Li  Li2  1  0.531843  0.692262  0.244088  1
  Li  Li3  1  0.701547  0.524215  0.072711  1
  Li  Li4  1  0.267477  0.517226  0.947670  1
  Li  Li5  1  0.487781  0.288833  0.735106  1
  Li  Li6  1  0.933111  0.279998  0.853467  1
  Li  Li7  1  0.668841  0.104891  0.557687  1
  Fe  Fe8  1  0.700857  0.797680  0.800353  1
  Fe  Fe9  1  0.098216  0.401762  0.401781  1
  Fe  Fe10  1  0.904206  0.590279  0.601329  1
  Fe  Fe11  1  0.497966  0.003143  0.001087  1
  Fe  Fe12  1  0.297345  0.207909  0.197538  1
  O  O13  1  0.494895  0.880130  0.130901  1
  O  O14  1  0.692303  0.933536  0.681672  1
  O  O15  1  0.096839  0.536291  0.269960  1
  O  O16  1  0.882439  0.763738  0.471467  1
  O  O17  1  0.283614  0.357392  0.075304  1
  O  O18  1  0.714840  0.644856  0.925370  1
  O  O19  1  0.113830  0.245495  0.527153  1
  O  O20  1  0.899588  0.463136  0.737293  1
  O  O21  1  0.317213  0.046994  0.318689  1
  O  O22  1  0.494385  0.141823  0.869029  1
