# generated using pymatgen
data_Li3Fe3P8O29
_symmetry_space_group_name_H-M   'P 1'
_cell_length_a   10.01106605
_cell_length_b   10.01295226
_cell_length_c   14.17934369
_cell_angle_alpha   91.71687378
_cell_angle_beta   91.69103936
_cell_angle_gamma   59.56883159
_symmetry_Int_Tables_number   1
_chemical_formula_structural   Li3Fe3P8O29
_chemical_formula_sum   'Li6 Fe6 P16 O58'
_cell_volume   1224.81587309
_cell_formula_units_Z   2
loop_
 _symmetry_equiv_pos_site_id
 _symmetry_equiv_pos_as_xyz
  1  'x, y, z'
loop_
 _atom_site_type_symbol
 _atom_site_label
 _atom_site_symmetry_multiplicity
 _atom_site_fract_x
 _atom_site_fract_y
 _atom_site_fract_z
 _atom_site_occupancy
  Li  Li0  1  0.999189  0.001021  0.000180  1
  Li  Li1  1  0.999407  0.000224  0.500003  1
  Li  Li2  1  0.908026  0.773398  0.432038  1
  Li  Li3  1  0.773333  0.907720  0.932160  1
  Li  Li4  1  0.092382  0.226546  0.567852  1
  Li  Li5  1  0.226201  0.092233  0.067956  1
  Fe  Fe6  1  0.559640  0.998084  0.748555  1
  Fe  Fe7  1  0.001870  0.440387  0.751247  1
  Fe  Fe8  1  0.439923  0.559989  0.749982  1
  Fe  Fe9  1  0.560182  0.439740  0.249978  1
  Fe  Fe10  1  0.440354  0.001977  0.251372  1
  Fe  Fe11  1  0.998141  0.559577  0.248623  1
  P  P12  1  0.668164  0.669930  0.361756  1
  P  P13  1  0.906622  0.771696  0.656019  1
  P  P14  1  0.696228  0.219607  0.840065  1
  P  P15  1  0.093385  0.228342  0.343919  1
  P  P16  1  0.305551  0.907875  0.665137  1
  P  P17  1  0.219844  0.695894  0.340013  1
  P  P18  1  0.780156  0.303944  0.660059  1
  P  P19  1  0.091928  0.694439  0.834699  1
  P  P20  1  0.330360  0.331674  0.138405  1
  P  P21  1  0.908076  0.305471  0.165171  1
  P  P22  1  0.304046  0.780138  0.160072  1
  P  P23  1  0.331807  0.330200  0.638447  1
  P  P24  1  0.669807  0.668276  0.861510  1
  P  P25  1  0.771789  0.906578  0.156053  1
  P  P26  1  0.694464  0.092032  0.334839  1
  P  P27  1  0.228284  0.093448  0.843930  1
  O  O28  1  0.085513  0.544341  0.830883  1
  O  O29  1  0.316647  0.482898  0.675121  1
  O  O30  1  0.035733  0.208653  0.437419  1
  O  O31  1  0.341350  0.330984  0.529181  1
  O  O32  1  0.916853  0.334917  0.663682  1
  O  O33  1  0.680383  0.812822  0.837803  1
  O  O34  1  0.742002  0.910825  0.666985  1
  O  O35  1  0.455566  0.914528  0.668961  1
  O  O36  1  0.013497  0.786682  0.737061  1
  O  O37  1  0.791432  0.964253  0.062556  1
  O  O38  1  0.910704  0.741987  0.167182  1
  O  O39  1  0.449179  0.621124  0.163827  1
  O  O40  1  0.187096  0.319667  0.662000  1
  O  O41  1  0.806552  0.999647  0.413430  1
  O  O42  1  0.816827  0.199410  0.572378  1
  O  O43  1  0.551100  0.378813  0.836292  1
  O  O44  1  0.330849  0.341295  0.028995  1
  O  O45  1  0.483098  0.316576  0.175041  1
  O  O46  1  0.339553  0.740793  0.664070  1
  O  O47  1  0.800425  0.183138  0.927426  1
  O  O48  1  0.914531  0.455606  0.169105  1
  O  O49  1  0.199320  0.800714  0.250091  1
  O  O50  1  0.616969  0.912654  0.165801  1
  O  O51  1  0.800852  0.199195  0.749991  1
  O  O52  1  0.000567  0.193351  0.086703  1
  O  O53  1  0.482601  0.188626  0.672844  1
  O  O54  1  0.544262  0.085654  0.331070  1
  O  O55  1  0.183441  0.800219  0.427577  1
  O  O56  1  0.188682  0.482759  0.172706  1
  O  O57  1  0.089282  0.258036  0.832863  1
  O  O58  1  0.378901  0.550852  0.336127  1
  O  O59  1  0.683305  0.517014  0.325223  1
  O  O60  1  0.812868  0.680401  0.338148  1
  O  O61  1  0.986580  0.213233  0.262868  1
  O  O62  1  0.665086  0.083102  0.836156  1
  O  O63  1  0.912475  0.617062  0.665696  1
  O  O64  1  0.319672  0.187086  0.161963  1
  O  O65  1  0.999325  0.806667  0.913388  1
  O  O66  1  0.621161  0.448749  0.663774  1
  O  O67  1  0.199693  0.816714  0.072606  1
  O  O68  1  0.658927  0.669110  0.470893  1
  O  O69  1  0.668844  0.658979  0.970683  1
  O  O70  1  0.383051  0.087440  0.834230  1
  O  O71  1  0.964224  0.791522  0.562462  1
  O  O72  1  0.740912  0.339473  0.164165  1
  O  O73  1  0.334914  0.916872  0.163787  1
  O  O74  1  0.811479  0.517256  0.827115  1
  O  O75  1  0.083162  0.665010  0.336166  1
  O  O76  1  0.660564  0.259184  0.336084  1
  O  O77  1  0.193337  0.000447  0.586702  1
  O  O78  1  0.517235  0.811345  0.327213  1
  O  O79  1  0.786862  0.013426  0.237161  1
  O  O80  1  0.258025  0.089297  0.332906  1
  O  O81  1  0.517086  0.683219  0.824830  1
  O  O82  1  0.213304  0.986471  0.762897  1
  O  O83  1  0.259213  0.660517  0.836012  1
  O  O84  1  0.208529  0.035919  0.937495  1
  O  O85  1  0.087463  0.383020  0.334169  1
