# generated using pymatgen
data_Li12Ni11O28
_symmetry_space_group_name_H-M   'P 1'
_cell_length_a   12.91358821
_cell_length_b   5.83023028
_cell_length_c   6.41274194
_cell_angle_alpha   105.70727879
_cell_angle_beta   95.80774487
_cell_angle_gamma   83.76674705
_symmetry_Int_Tables_number   1
_chemical_formula_structural   Li12Ni11O28
_chemical_formula_sum   'Li12 Ni11 O28'
_cell_volume   460.73085051
_cell_formula_units_Z   1
loop_
 _symmetry_equiv_pos_site_id
 _symmetry_equiv_pos_as_xyz
  1  'x, y, z'
loop_
 _atom_site_type_symbol
 _atom_site_label
 _atom_site_symmetry_multiplicity
 _atom_site_fract_x
 _atom_site_fract_y
 _atom_site_fract_z
 _atom_site_occupancy
  Li  Li0  1  0.071424  0.639603  0.648934  1
  Li  Li1  1  0.143006  0.789846  0.291581  1
  Li  Li2  1  0.207146  0.432601  0.928398  1
  Li  Li3  1  0.282093  0.063363  0.561380  1
  Li  Li4  1  0.356647  0.211628  0.214773  1
  Li  Li5  1  0.427732  0.353520  0.864395  1
  Li  Li6  1  0.499951  0.000604  0.489391  1
  Li  Li7  1  0.574312  0.639871  0.152999  1
  Li  Li8  1  0.714080  0.421452  0.435749  1
  Li  Li9  1  0.785401  0.570090  0.076985  1
  Li  Li10  1  0.853361  0.214258  0.701427  1
  Li  Li11  1  0.933284  0.855452  0.365561  1
  Ni  Ni12  1  0.000695  0.004031  0.994082  1
  Ni  Ni13  1  0.142369  0.290165  0.289821  1
  Ni  Ni14  1  0.215272  0.931360  0.929987  1
  Ni  Ni15  1  0.285551  0.568891  0.567996  1
  Ni  Ni16  1  0.428215  0.854925  0.860737  1
  Ni  Ni17  1  0.498787  0.494583  0.497680  1
  Ni  Ni18  1  0.573138  0.143153  0.143790  1
  Ni  Ni19  1  0.642928  0.783942  0.780490  1
  Ni  Ni20  1  0.785368  0.074732  0.074141  1
  Ni  Ni21  1  0.857081  0.715788  0.711325  1
  Ni  Ni22  1  0.929989  0.361878  0.358377  1
  O  O23  1  0.033576  0.097904  0.297302  1
  O  O24  1  0.035922  0.540725  0.328799  1
  O  O25  1  0.112486  0.187734  0.983441  1
  O  O26  1  0.108493  0.760705  0.964331  1
  O  O27  1  0.187586  0.369671  0.584374  1
  O  O28  1  0.190506  0.834158  0.623871  1
  O  O29  1  0.239153  0.025091  0.234192  1
  O  O30  1  0.240913  0.489513  0.273744  1
  O  O31  1  0.324730  0.108588  0.892626  1
  O  O32  1  0.318501  0.664719  0.873445  1
  O  O33  1  0.393321  0.314599  0.536646  1
  O  O34  1  0.394694  0.759488  0.557607  1
  O  O35  1  0.478280  0.406910  0.195304  1
  O  O36  1  0.533147  0.038514  0.836301  1
  O  O37  1  0.473736  0.938587  0.153731  1
  O  O38  1  0.532375  0.596666  0.804208  1
  O  O39  1  0.593416  0.229895  0.440090  1
  O  O40  1  0.598189  0.698027  0.488187  1
  O  O41  1  0.680483  0.322342  0.114115  1
  O  O42  1  0.678261  0.880067  0.083628  1
  O  O43  1  0.750886  0.544062  0.751743  1
  O  O44  1  0.750780  0.972684  0.769414  1
  O  O45  1  0.830365  0.155645  0.366809  1
  O  O46  1  0.835005  0.626337  0.409869  1
  O  O47  1  0.891093  0.259438  0.049704  1
  O  O48  1  0.892047  0.819756  0.016895  1
  O  O49  1  0.949739  0.446974  0.655044  1
  O  O50  1  0.956965  0.917752  0.701320  1
