# generated using pymatgen
data_Li(CoO2)2
_symmetry_space_group_name_H-M   'P 1'
_cell_length_a   5.77824656
_cell_length_b   5.77824643
_cell_length_c   5.77824650
_cell_angle_alpha   59.26009679
_cell_angle_beta   59.26009721
_cell_angle_gamma   59.26009250
_symmetry_Int_Tables_number   1
_chemical_formula_structural   Li(CoO2)2
_chemical_formula_sum   'Li2 Co4 O8'
_cell_volume   134.11959371
_cell_formula_units_Z   2
loop_
 _symmetry_equiv_pos_site_id
 _symmetry_equiv_pos_as_xyz
  1  'x, y, z'
loop_
 _atom_site_type_symbol
 _atom_site_label
 _atom_site_symmetry_multiplicity
 _atom_site_fract_x
 _atom_site_fract_y
 _atom_site_fract_z
 _atom_site_occupancy
  Li  Li0  1  0.121397  0.121397  0.121397  1
  Li  Li1  1  0.500023  0.500023  0.500023  1
  Co  Co2  1  0.005670  0.498596  0.498596  1
  Co  Co3  1  0.498596  0.498596  0.005670  1
  Co  Co4  1  0.498596  0.005670  0.498596  1
  Co  Co5  1  0.878649  0.878649  0.878649  1
  O  O6  1  0.263127  0.263127  0.263127  1
  O  O7  1  0.249932  0.706584  0.249932  1
  O  O8  1  0.249932  0.249932  0.706584  1
  O  O9  1  0.706584  0.249932  0.249932  1
  O  O10  1  0.290205  0.748881  0.748881  1
  O  O11  1  0.748881  0.748881  0.290205  1
  O  O12  1  0.748881  0.290205  0.748881  1
  O  O13  1  0.739525  0.739525  0.739525  1
