# generated using pymatgen
data_Mn3Co5O16
_symmetry_space_group_name_H-M   'P 1'
_cell_length_a   5.66822841
_cell_length_b   5.69578788
_cell_length_c   8.61146680
_cell_angle_alpha   89.99839773
_cell_angle_beta   90.65085023
_cell_angle_gamma   120.15687732
_symmetry_Int_Tables_number   1
_chemical_formula_structural   Mn3Co5O16
_chemical_formula_sum   'Mn3 Co5 O16'
_cell_volume   240.37141432
_cell_formula_units_Z   1
loop_
 _symmetry_equiv_pos_site_id
 _symmetry_equiv_pos_as_xyz
  1  'x, y, z'
loop_
 _atom_site_type_symbol
 _atom_site_label
 _atom_site_symmetry_multiplicity
 _atom_site_fract_x
 _atom_site_fract_y
 _atom_site_fract_z
 _atom_site_occupancy
  Mn  Mn0  1  0.665061  0.832533  0.210886  1
  Mn  Mn1  1  0.832689  0.664656  0.710592  1
  Mn  Mn2  1  0.832658  0.168031  0.710586  1
  Co  Co3  1  0.167508  0.831418  0.206819  1
  Co  Co4  1  0.335780  0.667901  0.483591  1
  Co  Co5  1  0.167511  0.336122  0.206833  1
  Co  Co6  1  0.334765  0.167404  0.705656  1
  Co  Co7  1  0.666545  0.333279  0.986156  1
  O  O8  1  0.172508  0.837259  0.601345  1
  O  O9  1  0.045868  0.522971  0.337451  1
  O  O10  1  0.328597  0.664284  0.096791  1
  O  O11  1  0.006981  0.003513  0.318568  1
  O  O12  1  0.004031  0.002026  0.820100  1
  O  O13  1  0.172487  0.335274  0.601339  1
  O  O14  1  0.474001  0.958236  0.342303  1
  O  O15  1  0.474021  0.515772  0.342311  1
  O  O16  1  0.333648  0.166820  0.104334  1
  O  O17  1  0.657098  0.828554  0.598789  1
  O  O18  1  0.515638  0.472448  0.842232  1
  O  O19  1  0.515661  0.043230  0.842248  1
  O  O20  1  0.665860  0.332954  0.595879  1
  O  O21  1  0.835851  0.663047  0.102216  1
  O  O22  1  0.959371  0.479659  0.846468  1
  O  O23  1  0.835860  0.172808  0.102225  1
