# generated using pymatgen
data_Cr3(FeO4)2
_symmetry_space_group_name_H-M   'P 1'
_cell_length_a   5.97929818
_cell_length_b   5.97929818
_cell_length_c   5.93934460
_cell_angle_alpha   59.77722420
_cell_angle_beta   59.77722420
_cell_angle_gamma   60.00000000
_symmetry_Int_Tables_number   1
_chemical_formula_structural   Cr3(FeO4)2
_chemical_formula_sum   'Cr3 Fe2 O8'
_cell_volume   149.64194083
_cell_formula_units_Z   1
loop_
 _symmetry_equiv_pos_site_id
 _symmetry_equiv_pos_as_xyz
  1  'x, y, z'
loop_
 _atom_site_type_symbol
 _atom_site_label
 _atom_site_symmetry_multiplicity
 _atom_site_fract_x
 _atom_site_fract_y
 _atom_site_fract_z
 _atom_site_occupancy
  Cr  Cr0  1  0.622114  0.138710  0.617062  1
  Cr  Cr1  1  0.138710  0.622114  0.617062  1
  Cr  Cr2  1  0.622114  0.622114  0.617062  1
  Fe  Fe3  1  0.001829  0.001829  0.994513  1
  Fe  Fe4  1  0.621917  0.621917  0.134247  1
  O  O5  1  0.833288  0.383567  0.399577  1
  O  O6  1  0.383567  0.383567  0.399577  1
  O  O7  1  0.383567  0.833288  0.399577  1
  O  O8  1  0.391559  0.391559  0.825322  1
  O  O9  1  0.867717  0.867717  0.396848  1
  O  O10  1  0.867768  0.398079  0.866384  1
  O  O11  1  0.398079  0.867768  0.866384  1
  O  O12  1  0.867768  0.867768  0.866384  1
