# generated using pymatgen
data_LiVF4
_symmetry_space_group_name_H-M   'P 1'
_cell_length_a   3.97236773
_cell_length_b   5.67454556
_cell_length_c   5.61532438
_cell_angle_alpha   90.20711696
_cell_angle_beta   134.89871183
_cell_angle_gamma   110.40235539
_symmetry_Int_Tables_number   1
_chemical_formula_structural   LiVF4
_chemical_formula_sum   'Li1 V1 F4'
_cell_volume   77.86773961
_cell_formula_units_Z   1
loop_
 _symmetry_equiv_pos_site_id
 _symmetry_equiv_pos_as_xyz
  1  'x, y, z'
loop_
 _atom_site_type_symbol
 _atom_site_label
 _atom_site_symmetry_multiplicity
 _atom_site_fract_x
 _atom_site_fract_y
 _atom_site_fract_z
 _atom_site_occupancy
  Li  Li0  1  0.004623  0.504358  0.253751  1
  V  V1  1  0.005426  0.001585  0.003909  1
  F  F2  1  0.612810  0.609653  0.806618  1
  F  F3  1  0.396927  0.394582  0.200098  1
  F  F4  1  0.471994  0.968234  0.487188  1
  F  F5  1  0.537400  0.033720  0.020119  1
