# generated using pymatgen
data_LiFeO3
_symmetry_space_group_name_H-M   'P 1'
_cell_length_a   2.87958344
_cell_length_b   6.61638990
_cell_length_c   5.99167035
_cell_angle_alpha   103.24357392
_cell_angle_beta   89.97530512
_cell_angle_gamma   102.58681458
_symmetry_Int_Tables_number   1
_chemical_formula_structural   LiFeO3
_chemical_formula_sum   'Li2 Fe2 O6'
_cell_volume   108.30217545
_cell_formula_units_Z   2
loop_
 _symmetry_equiv_pos_site_id
 _symmetry_equiv_pos_as_xyz
  1  'x, y, z'
loop_
 _atom_site_type_symbol
 _atom_site_label
 _atom_site_symmetry_multiplicity
 _atom_site_fract_x
 _atom_site_fract_y
 _atom_site_fract_z
 _atom_site_occupancy
  Li  Li0  1  0.333395  0.666715  0.166692  1
  Li  Li1  1  0.333381  0.666706  0.666706  1
  Fe  Fe2  1  0.998304  0.996499  0.988499  1
  Fe  Fe3  1  0.668336  0.336829  0.344816  1
  O  O4  1  0.808190  0.616121  0.402905  1
  O  O5  1  0.158153  0.316053  0.119965  1
  O  O6  1  0.858482  0.717192  0.930446  1
  O  O7  1  0.161913  0.324371  0.539709  1
  O  O8  1  0.508479  0.017271  0.213336  1
  O  O9  1  0.504701  0.008911  0.793592  1
