# generated using pymatgen
data_Co(NiO2)4
_symmetry_space_group_name_H-M   'P 1'
_cell_length_a   10.19614800
_cell_length_b   10.19614800
_cell_length_c   14.46867593
_cell_angle_alpha   18.85191008
_cell_angle_beta   18.85191008
_cell_angle_gamma   32.46643431
_symmetry_Int_Tables_number   1
_chemical_formula_structural   Co(NiO2)4
_chemical_formula_sum   'Co1 Ni4 O8'
_cell_volume   136.28502990
_cell_formula_units_Z   1
loop_
 _symmetry_equiv_pos_site_id
 _symmetry_equiv_pos_as_xyz
  1  'x, y, z'
loop_
 _atom_site_type_symbol
 _atom_site_label
 _atom_site_symmetry_multiplicity
 _atom_site_fract_x
 _atom_site_fract_y
 _atom_site_fract_z
 _atom_site_occupancy
  Co  Co0  1  0.500000  0.500000  0.000000  1
  Ni  Ni1  1  0.000000  0.500000  0.000000  1
  Ni  Ni2  1  0.000000  0.000000  0.000000  1
  Ni  Ni3  1  0.000000  0.000000  0.500000  1
  Ni  Ni4  1  0.500000  0.000000  0.000000  1
  O  O5  1  0.001429  0.539172  0.708988  1
  O  O6  1  0.998571  0.460828  0.291012  1
  O  O7  1  0.003547  0.003547  0.263011  1
  O  O8  1  0.996453  0.996453  0.736989  1
  O  O9  1  0.458814  0.458814  0.791583  1
  O  O10  1  0.541186  0.541186  0.208417  1
  O  O11  1  0.539172  0.001429  0.708988  1
  O  O12  1  0.460828  0.998571  0.291012  1
