# generated using pymatgen
data_Li8Fe7O15
_symmetry_space_group_name_H-M   'P 1'
_cell_length_a   9.01141453
_cell_length_b   7.94267395
_cell_length_c   4.04923747
_cell_angle_alpha   104.76789587
_cell_angle_beta   90.00000000
_cell_angle_gamma   101.11885570
_symmetry_Int_Tables_number   1
_chemical_formula_structural   Li8Fe7O15
_chemical_formula_sum   'Li8 Fe7 O15'
_cell_volume   274.61937139
_cell_formula_units_Z   1
loop_
 _symmetry_equiv_pos_site_id
 _symmetry_equiv_pos_as_xyz
  1  'x, y, z'
loop_
 _atom_site_type_symbol
 _atom_site_label
 _atom_site_symmetry_multiplicity
 _atom_site_fract_x
 _atom_site_fract_y
 _atom_site_fract_z
 _atom_site_occupancy
  Li  Li0  1  0.003950  0.002620  0.001310  1
  Li  Li1  1  0.065939  0.386711  0.193355  1
  Li  Li2  1  0.667394  0.013289  0.006645  1
  Li  Li3  1  0.331472  0.003519  0.001759  1
  Li  Li4  1  0.401862  0.396481  0.198241  1
  Li  Li5  1  0.133614  0.799665  0.399833  1
  Li  Li6  1  0.729383  0.397380  0.198690  1
  Li  Li7  1  0.599719  0.600335  0.800167  1
  Fe  Fe8  1  0.468494  0.801989  0.400994  1
  Fe  Fe9  1  0.798453  0.800206  0.400103  1
  Fe  Fe10  1  0.200625  0.187875  0.593937  1
  Fe  Fe11  1  0.532708  0.212125  0.606063  1
  Fe  Fe12  1  0.264839  0.598011  0.799006  1
  Fe  Fe13  1  0.866667  0.200000  0.600000  1
  Fe  Fe14  1  0.934880  0.599794  0.799897  1
  O  O15  1  0.197679  0.192653  0.096327  1
  O  O16  1  0.535654  0.207347  0.103673  1
  O  O17  1  0.866667  0.200000  0.100000  1
  O  O18  1  0.605028  0.630175  0.315088  1
  O  O19  1  0.923211  0.608619  0.304310  1
  O  O20  1  0.279668  0.608014  0.304008  1
  O  O21  1  0.994115  0.010021  0.505011  1
  O  O22  1  0.344724  0.012832  0.506416  1
  O  O23  1  0.666422  0.004509  0.502254  1
  O  O24  1  0.388610  0.387168  0.693584  1
  O  O25  1  0.128306  0.769825  0.884912  1
  O  O26  1  0.066912  0.395491  0.697746  1
  O  O27  1  0.739219  0.389979  0.694989  1
  O  O28  1  0.453666  0.791986  0.895992  1
  O  O29  1  0.810122  0.791381  0.895690  1
