# generated using pymatgen
data_Li10Co4O9
_symmetry_space_group_name_H-M   'P 1'
_cell_length_a   9.81032708
_cell_length_b   7.75333416
_cell_length_c   7.57874160
_cell_angle_alpha   60.98290575
_cell_angle_beta   103.93655333
_cell_angle_gamma   88.58056776
_symmetry_Int_Tables_number   1
_chemical_formula_structural   Li10Co4O9
_chemical_formula_sum   'Li20 Co8 O18'
_cell_volume   482.40345221
_cell_formula_units_Z   2
loop_
 _symmetry_equiv_pos_site_id
 _symmetry_equiv_pos_as_xyz
  1  'x, y, z'
loop_
 _atom_site_type_symbol
 _atom_site_label
 _atom_site_symmetry_multiplicity
 _atom_site_fract_x
 _atom_site_fract_y
 _atom_site_fract_z
 _atom_site_occupancy
  Li  Li0  1  0.127370  0.919156  0.651139  1
  Li  Li1  1  0.142246  0.711581  0.130430  1
  Li  Li2  1  0.098666  0.609408  0.494607  1
  Li  Li3  1  0.150389  0.335839  0.399075  1
  Li  Li4  1  0.343621  0.867353  0.959212  1
  Li  Li5  1  0.128955  0.154106  0.807014  1
  Li  Li6  1  0.393712  0.620911  0.849580  1
  Li  Li7  1  0.371897  0.468354  0.238772  1
  Li  Li8  1  0.623009  0.926330  0.488934  1
  Li  Li9  1  0.615596  0.814945  0.863775  1
  Li  Li10  1  0.384404  0.185055  0.136225  1
  Li  Li11  1  0.376991  0.073670  0.511066  1
  Li  Li12  1  0.628103  0.531646  0.761228  1
  Li  Li13  1  0.606288  0.379089  0.150420  1
  Li  Li14  1  0.871045  0.845894  0.192986  1
  Li  Li15  1  0.656379  0.132647  0.040788  1
  Li  Li16  1  0.849611  0.664161  0.600925  1
  Li  Li17  1  0.901334  0.390593  0.505393  1
  Li  Li18  1  0.857754  0.288419  0.869570  1
  Li  Li19  1  0.872629  0.080844  0.348861  1
  Co  Co20  1  0.131779  0.471626  0.929669  1
  Co  Co21  1  0.365916  0.755034  0.410064  1
  Co  Co22  1  0.141485  0.039118  0.242124  1
  Co  Co23  1  0.370482  0.306994  0.712101  1
  Co  Co24  1  0.629518  0.693006  0.287899  1
  Co  Co25  1  0.858515  0.960882  0.757876  1
  Co  Co26  1  0.634084  0.244966  0.589936  1
  Co  Co27  1  0.868221  0.528374  0.070331  1
  O  O28  1  0.028088  0.891428  0.389968  1
  O  O29  1  0.258202  0.954630  0.119839  1
  O  O30  1  0.018323  0.422714  0.736365  1
  O  O31  1  0.221201  0.678225  0.927147  1
  O  O32  1  0.283641  0.532962  0.422582  1
  O  O33  1  0.225588  0.262238  0.223357  1
  O  O34  1  0.472113  0.793324  0.615692  1
  O  O35  1  0.278944  0.113001  0.684366  1
  O  O36  1  0.521410  0.658942  0.078981  1
  O  O37  1  0.478590  0.341058  0.921019  1
  O  O38  1  0.721056  0.886999  0.315634  1
  O  O39  1  0.527887  0.206676  0.384308  1
  O  O40  1  0.774412  0.737762  0.776643  1
  O  O41  1  0.716359  0.467038  0.577418  1
  O  O42  1  0.778799  0.321775  0.072853  1
  O  O43  1  0.981677  0.577286  0.263635  1
  O  O44  1  0.741798  0.045370  0.880161  1
  O  O45  1  0.971912  0.108572  0.610032  1
