# generated using pymatgen
data_Mn2Cr3O12
_symmetry_space_group_name_H-M   'P 1'
_cell_length_a   8.75306054
_cell_length_b   12.46186081
_cell_length_c   9.08557374
_cell_angle_alpha   90.00000000
_cell_angle_beta   90.00000000
_cell_angle_gamma   92.21082345
_symmetry_Int_Tables_number   1
_chemical_formula_structural   Mn2Cr3O12
_chemical_formula_sum   'Mn8 Cr12 O48'
_cell_volume   990.31144234
_cell_formula_units_Z   4
loop_
 _symmetry_equiv_pos_site_id
 _symmetry_equiv_pos_as_xyz
  1  'x, y, z'
loop_
 _atom_site_type_symbol
 _atom_site_label
 _atom_site_symmetry_multiplicity
 _atom_site_fract_x
 _atom_site_fract_y
 _atom_site_fract_z
 _atom_site_occupancy
  Mn  Mn0  1  0.252694  0.884706  0.029568  1
  Mn  Mn1  1  0.247306  0.615294  0.529568  1
  Mn  Mn2  1  0.252523  0.382346  0.967813  1
  Mn  Mn3  1  0.247477  0.117654  0.467813  1
  Mn  Mn4  1  0.752523  0.882346  0.532187  1
  Mn  Mn5  1  0.747477  0.617654  0.032187  1
  Mn  Mn6  1  0.752694  0.384706  0.470432  1
  Mn  Mn7  1  0.747306  0.115293  0.970432  1
  Cr  Cr8  1  0.042652  0.490028  0.249898  1
  Cr  Cr9  1  0.112925  0.854983  0.375839  1
  Cr  Cr10  1  0.114215  0.146612  0.113753  1
  Cr  Cr11  1  0.387075  0.645017  0.875839  1
  Cr  Cr12  1  0.385785  0.353388  0.613753  1
  Cr  Cr13  1  0.457348  0.009972  0.749898  1
  Cr  Cr14  1  0.542652  0.990028  0.250102  1
  Cr  Cr15  1  0.614215  0.646612  0.386247  1
  Cr  Cr16  1  0.612925  0.354983  0.124161  1
  Cr  Cr17  1  0.885785  0.853388  0.886247  1
  Cr  Cr18  1  0.887075  0.145017  0.624161  1
  Cr  Cr19  1  0.957348  0.509972  0.750102  1
  O  O20  1  0.059808  0.448061  0.871170  1
  O  O21  1  0.067879  0.897759  0.893707  1
  O  O22  1  0.066080  0.605638  0.666081  1
  O  O23  1  0.060226  0.184919  0.575521  1
  O  O24  1  0.109624  0.583790  0.368759  1
  O  O25  1  0.124182  0.841496  0.189788  1
  O  O26  1  0.137276  0.985067  0.422110  1
  O  O27  1  0.132910  0.252342  0.999366  1
  O  O28  1  0.163932  0.181668  0.285328  1
  O  O29  1  0.188924  0.434399  0.164469  1
  O  O30  1  0.237222  0.781298  0.461422  1
  O  O31  1  0.262778  0.718702  0.961422  1
  O  O32  1  0.228308  0.052114  0.061244  1
  O  O33  1  0.271692  0.447886  0.561244  1
  O  O34  1  0.311076  0.065601  0.664469  1
  O  O35  1  0.336068  0.318332  0.785328  1
  O  O36  1  0.362724  0.514933  0.922110  1
  O  O37  1  0.367090  0.247658  0.499366  1
  O  O38  1  0.375818  0.658504  0.689788  1
  O  O39  1  0.390376  0.916210  0.868759  1
  O  O40  1  0.433920  0.894362  0.166081  1
  O  O41  1  0.432121  0.602241  0.393707  1
  O  O42  1  0.439774  0.315081  0.075521  1
  O  O43  1  0.440192  0.051939  0.371170  1
  O  O44  1  0.559808  0.948061  0.628830  1
  O  O45  1  0.560226  0.684919  0.924479  1
  O  O46  1  0.567879  0.397759  0.606293  1
  O  O47  1  0.566080  0.105638  0.833919  1
  O  O48  1  0.609624  0.083790  0.131241  1
  O  O49  1  0.624182  0.341496  0.310212  1
  O  O50  1  0.632910  0.752342  0.500634  1
  O  O51  1  0.637276  0.485067  0.077890  1
  O  O52  1  0.663932  0.681668  0.214672  1
  O  O53  1  0.688924  0.934399  0.335531  1
  O  O54  1  0.728308  0.552114  0.438756  1
  O  O55  1  0.771692  0.947886  0.938756  1
  O  O56  1  0.737222  0.281298  0.038578  1
  O  O57  1  0.762778  0.218702  0.538578  1
  O  O58  1  0.811076  0.565601  0.835531  1
  O  O59  1  0.836068  0.818332  0.714672  1
  O  O60  1  0.867090  0.747658  0.000634  1
  O  O61  1  0.862724  0.014933  0.577890  1
  O  O62  1  0.875818  0.158504  0.810212  1
  O  O63  1  0.890376  0.416210  0.631241  1
  O  O64  1  0.939774  0.815081  0.424479  1
  O  O65  1  0.933920  0.394362  0.333919  1
  O  O66  1  0.932121  0.102241  0.106293  1
  O  O67  1  0.940192  0.551939  0.128830  1
