# generated using pymatgen
data_Li9Sb3P8O29
_symmetry_space_group_name_H-M   'P 1'
_cell_length_a   10.20403019
_cell_length_b   10.20414985
_cell_length_c   14.14358892
_cell_angle_alpha   89.99940851
_cell_angle_beta   89.99969800
_cell_angle_gamma   60.00042363
_symmetry_Int_Tables_number   1
_chemical_formula_structural   Li9Sb3P8O29
_chemical_formula_sum   'Li18 Sb6 P16 O58'
_cell_volume   1275.38314574
_cell_formula_units_Z   2
loop_
 _symmetry_equiv_pos_site_id
 _symmetry_equiv_pos_as_xyz
  1  'x, y, z'
loop_
 _atom_site_type_symbol
 _atom_site_label
 _atom_site_symmetry_multiplicity
 _atom_site_fract_x
 _atom_site_fract_y
 _atom_site_fract_z
 _atom_site_occupancy
  Li  Li0  1  0.999995  0.000001  0.500000  1
  Li  Li1  1  0.000000  1.000000  0.000001  1
  Li  Li2  1  0.102646  0.226535  0.561928  1
  Li  Li3  1  0.226544  0.102646  0.061928  1
  Li  Li4  1  0.102645  0.670810  0.061925  1
  Li  Li5  1  0.333328  0.333319  0.379882  1
  Li  Li6  1  0.333354  0.333324  0.879881  1
  Li  Li7  1  0.226549  0.670808  0.561925  1
  Li  Li8  1  0.670811  0.102646  0.561924  1
  Li  Li9  1  0.329189  0.773458  0.938075  1
  Li  Li10  1  0.670812  0.226544  0.061926  1
  Li  Li11  1  0.329186  0.897355  0.438075  1
  Li  Li12  1  0.773453  0.329188  0.438073  1
  Li  Li13  1  0.666681  0.666677  0.620117  1
  Li  Li14  1  0.666681  0.666676  0.120119  1
  Li  Li15  1  0.897359  0.329191  0.938075  1
  Li  Li16  1  0.773458  0.897355  0.938071  1
  Li  Li17  1  0.897350  0.773460  0.438073  1
  Sb  Sb18  1  0.000003  0.431278  0.749999  1
  Sb  Sb19  1  0.000001  0.568724  0.250002  1
  Sb  Sb20  1  0.431278  0.000003  0.249999  1
  Sb  Sb21  1  0.568720  0.000003  0.749999  1
  Sb  Sb22  1  0.431285  0.568716  0.750002  1
  Sb  Sb23  1  0.568720  0.431278  0.249998  1
  P  P24  1  0.087243  0.220373  0.346842  1
  P  P25  1  0.220382  0.087237  0.846843  1
  P  P26  1  0.087244  0.692384  0.846846  1
  P  P27  1  0.333328  0.333330  0.112933  1
  P  P28  1  0.333341  0.333345  0.612930  1
  P  P29  1  0.220377  0.692383  0.346841  1
  P  P30  1  0.307615  0.779626  0.153158  1
  P  P31  1  0.692389  0.087241  0.346836  1
  P  P32  1  0.307627  0.912750  0.653162  1
  P  P33  1  0.692389  0.220372  0.846841  1
  P  P34  1  0.779622  0.307619  0.653158  1
  P  P35  1  0.666680  0.666661  0.887069  1
  P  P36  1  0.666664  0.666674  0.387065  1
  P  P37  1  0.912757  0.307623  0.153160  1
  P  P38  1  0.779634  0.912758  0.153157  1
  P  P39  1  0.912764  0.779625  0.653160  1
  O  O40  1  0.999997  0.222700  0.250002  1
  O  O41  1  0.007691  0.217578  0.068497  1
  O  O42  1  0.065624  0.236001  0.846777  1
  O  O43  1  0.222703  0.999990  0.750004  1
  O  O44  1  0.217581  0.007683  0.568498  1
  O  O45  1  0.236001  0.065619  0.346780  1
  O  O46  1  0.124832  0.348358  0.344008  1
  O  O47  1  0.203740  0.305991  0.650791  1
  O  O48  1  0.124825  0.526811  0.844012  1
  O  O49  1  0.007699  0.774732  0.568497  1
  O  O50  1  0.000001  0.777309  0.750002  1
  O  O51  1  0.065619  0.698380  0.346780  1
  O  O52  1  0.305978  0.203734  0.150806  1
  O  O53  1  0.348370  0.124823  0.844004  1
  O  O54  1  0.203728  0.490280  0.150792  1
  O  O55  1  0.333334  0.333306  0.006380  1
  O  O56  1  0.333353  0.333357  0.506380  1
  O  O57  1  0.305985  0.490293  0.650805  1
  O  O58  1  0.526816  0.124820  0.344004  1
  O  O59  1  0.490288  0.203745  0.650797  1
  O  O60  1  0.236006  0.698376  0.846779  1
  O  O61  1  0.222687  0.777312  0.250000  1
  O  O62  1  0.217568  0.774740  0.068495  1
  O  O63  1  0.225269  0.782425  0.431506  1
  O  O64  1  0.348368  0.526815  0.344007  1
  O  O65  1  0.490277  0.305988  0.150801  1
  O  O66  1  0.301629  0.763992  0.653225  1
  O  O67  1  0.526814  0.348361  0.844005  1
  O  O68  1  0.698382  0.065621  0.846780  1
  O  O69  1  0.225271  0.992312  0.931507  1
  O  O70  1  0.774746  0.007684  0.068490  1
  O  O71  1  0.777320  0.000004  0.249995  1
  O  O72  1  0.301627  0.934376  0.153220  1
  O  O73  1  0.473186  0.651631  0.155990  1
  O  O74  1  0.698377  0.236003  0.346774  1
  O  O75  1  0.509727  0.694009  0.849211  1
  O  O76  1  0.651632  0.473190  0.655994  1
  O  O77  1  0.774735  0.217576  0.568497  1
  O  O78  1  0.782431  0.225268  0.931504  1
  O  O79  1  0.777309  0.222695  0.750000  1
  O  O80  1  0.763998  0.301626  0.153221  1
  O  O81  1  0.509711  0.796269  0.349200  1
  O  O82  1  0.473198  0.875174  0.655995  1
  O  O83  1  0.694012  0.509723  0.349206  1
  O  O84  1  0.666699  0.666658  0.993620  1
  O  O85  1  0.666678  0.666684  0.493617  1
  O  O86  1  0.796275  0.509710  0.849198  1
  O  O87  1  0.651636  0.875184  0.155999  1
  O  O88  1  0.694026  0.796260  0.849197  1
  O  O89  1  0.934379  0.301625  0.653222  1
  O  O90  1  0.992309  0.225261  0.431507  1
  O  O91  1  0.875178  0.473192  0.155994  1
  O  O92  1  0.796258  0.694028  0.349190  1
  O  O93  1  0.875183  0.651631  0.655992  1
  O  O94  1  0.764001  0.934374  0.653219  1
  O  O95  1  0.782435  0.992306  0.431499  1
  O  O96  1  0.934383  0.763992  0.153220  1
  O  O97  1  0.992312  0.782424  0.931507  1
