# generated using pymatgen
data_Li3Mg3Ti6O16
_symmetry_space_group_name_H-M   'P 1'
_cell_length_a   8.47363026
_cell_length_b   8.47438542
_cell_length_c   8.47632363
_cell_angle_alpha   90.00000000
_cell_angle_beta   90.00000000
_cell_angle_gamma   90.00069541
_symmetry_Int_Tables_number   1
_chemical_formula_structural   Li3Mg3Ti6O16
_chemical_formula_sum   'Li6 Mg6 Ti12 O32'
_cell_volume   608.67470226
_cell_formula_units_Z   2
loop_
 _symmetry_equiv_pos_site_id
 _symmetry_equiv_pos_as_xyz
  1  'x, y, z'
loop_
 _atom_site_type_symbol
 _atom_site_label
 _atom_site_symmetry_multiplicity
 _atom_site_fract_x
 _atom_site_fract_y
 _atom_site_fract_z
 _atom_site_occupancy
  Li  Li0  1  0.124586  0.875786  0.375185  1
  Li  Li1  1  0.375414  0.124214  0.875185  1
  Li  Li2  1  0.501931  0.001805  0.497996  1
  Li  Li3  1  0.624860  0.625303  0.624720  1
  Li  Li4  1  0.875140  0.374697  0.124720  1
  Li  Li5  1  0.998069  0.998195  0.997996  1
  Mg  Mg6  1  0.001907  0.498167  0.501678  1
  Mg  Mg7  1  0.248447  0.749898  0.752490  1
  Mg  Mg8  1  0.251553  0.250102  0.252490  1
  Mg  Mg9  1  0.498093  0.501833  0.001678  1
  Mg  Mg10  1  0.747535  0.753993  0.248589  1
  Mg  Mg11  1  0.752465  0.246007  0.748589  1
  Ti  Ti12  1  0.118454  0.629534  0.130320  1
  Ti  Ti13  1  0.122603  0.363860  0.882138  1
  Ti  Ti14  1  0.133250  0.116198  0.625947  1
  Ti  Ti15  1  0.366750  0.883802  0.125947  1
  Ti  Ti16  1  0.377397  0.636140  0.382138  1
  Ti  Ti17  1  0.381546  0.370466  0.630320  1
  Ti  Ti18  1  0.621758  0.878033  0.866343  1
  Ti  Ti19  1  0.630070  0.128666  0.122623  1
  Ti  Ti20  1  0.630522  0.376297  0.374749  1
  Ti  Ti21  1  0.869478  0.623703  0.874749  1
  Ti  Ti22  1  0.869930  0.871334  0.622623  1
  Ti  Ti23  1  0.878242  0.121967  0.366343  1
  O  O24  1  0.107388  0.128432  0.390432  1
  O  O25  1  0.112955  0.612584  0.887442  1
  O  O26  1  0.111636  0.892572  0.626851  1
  O  O27  1  0.123695  0.144341  0.858003  1
  O  O28  1  0.128835  0.389349  0.107235  1
  O  O29  1  0.139316  0.621803  0.357566  1
  O  O30  1  0.136834  0.363559  0.637625  1
  O  O31  1  0.144127  0.857589  0.123195  1
  O  O32  1  0.355872  0.142411  0.623195  1
  O  O33  1  0.363166  0.636441  0.137625  1
  O  O34  1  0.360684  0.378197  0.857566  1
  O  O35  1  0.371165  0.610651  0.607235  1
  O  O36  1  0.376305  0.855659  0.358003  1
  O  O37  1  0.388364  0.107428  0.126851  1
  O  O38  1  0.387045  0.387416  0.387442  1
  O  O39  1  0.392612  0.871568  0.890432  1
  O  O40  1  0.608453  0.373436  0.612364  1
  O  O41  1  0.611611  0.887619  0.112777  1
  O  O42  1  0.610090  0.607866  0.371914  1
  O  O43  1  0.622311  0.358306  0.138074  1
  O  O44  1  0.626060  0.111046  0.891726  1
  O  O45  1  0.640528  0.876080  0.642944  1
  O  O46  1  0.639011  0.139425  0.361800  1
  O  O47  1  0.641970  0.638056  0.877274  1
  O  O48  1  0.858030  0.361944  0.377274  1
  O  O49  1  0.860989  0.860575  0.861800  1
  O  O50  1  0.859472  0.123920  0.142944  1
  O  O51  1  0.873940  0.888954  0.391726  1
  O  O52  1  0.877689  0.641694  0.638074  1
  O  O53  1  0.889910  0.392134  0.871914  1
  O  O54  1  0.888389  0.112381  0.612777  1
  O  O55  1  0.891547  0.626564  0.112364  1
