# generated using pymatgen
data_Mn7Fe3O20
_symmetry_space_group_name_H-M   'P 1'
_cell_length_a   5.82531990
_cell_length_b   5.88368978
_cell_length_c   24.39576573
_cell_angle_alpha   90.29297744
_cell_angle_beta   96.88402883
_cell_angle_gamma   119.64994550
_symmetry_Int_Tables_number   1
_chemical_formula_structural   Mn7Fe3O20
_chemical_formula_sum   'Mn14 Fe6 O40'
_cell_volume   719.41591393
_cell_formula_units_Z   2
loop_
 _symmetry_equiv_pos_site_id
 _symmetry_equiv_pos_as_xyz
  1  'x, y, z'
loop_
 _atom_site_type_symbol
 _atom_site_label
 _atom_site_symmetry_multiplicity
 _atom_site_fract_x
 _atom_site_fract_y
 _atom_site_fract_z
 _atom_site_occupancy
  Mn  Mn0  1  0.402707  0.702409  0.100417  1
  Mn  Mn1  1  0.401781  0.202160  0.100222  1
  Mn  Mn2  1  0.196798  0.598659  0.299904  1
  Mn  Mn3  1  0.697112  0.598626  0.300072  1
  Mn  Mn4  1  0.901625  0.202990  0.100226  1
  Mn  Mn5  1  0.196528  0.098903  0.300018  1
  Mn  Mn6  1  0.999641  0.999816  0.500321  1
  Mn  Mn7  1  0.099476  0.795713  0.899957  1
  Mn  Mn8  1  0.499244  0.998949  0.500095  1
  Mn  Mn9  1  0.299277  0.398976  0.699958  1
  Mn  Mn10  1  0.600323  0.797463  0.900209  1
  Mn  Mn11  1  0.799159  0.398687  0.700165  1
  Mn  Mn12  1  0.698061  0.597211  0.800117  1
  Mn  Mn13  1  0.898767  0.199446  0.600011  1
  Fe  Fe14  1  0.097467  0.799130  0.399979  1
  Fe  Fe15  1  0.501813  0.001078  0.000212  1
  Fe  Fe16  1  0.299311  0.399516  0.200136  1
  Fe  Fe17  1  0.998697  0.498947  0.499901  1
  Fe  Fe18  1  0.799635  0.898859  0.700153  1
  Fe  Fe19  1  0.598301  0.296578  0.899913  1
  O  O20  1  0.243134  0.873504  0.054927  1
  O  O21  1  0.688576  0.874078  0.055220  1
  O  O22  1  0.003310  0.752689  0.259417  1
  O  O23  1  0.208465  0.356356  0.059679  1
  O  O24  1  0.117007  0.531234  0.145762  1
  O  O25  1  0.560711  0.529805  0.145823  1
  O  O26  1  0.356187  0.927418  0.345379  1
  O  O27  1  0.116676  0.087516  0.145498  1
  O  O28  1  0.481498  0.712628  0.254625  1
  O  O29  1  0.686537  0.317629  0.055202  1
  O  O30  1  0.037863  0.270383  0.254521  1
  O  O31  1  0.482481  0.269543  0.254751  1
  O  O32  1  0.289632  0.673603  0.453730  1
  O  O33  1  0.197099  0.853472  0.540983  1
  O  O34  1  0.595502  0.048875  0.140911  1
  O  O35  1  0.390363  0.445256  0.340629  1
  O  O36  1  0.910812  0.927518  0.345260  1
  O  O37  1  0.912236  0.483804  0.345108  1
  O  O38  1  0.718633  0.890807  0.547076  1
  O  O39  1  0.156624  0.322925  0.547547  1
  O  O40  1  0.836180  0.674542  0.453820  1
  O  O41  1  0.080078  0.508569  0.653206  1
  O  O42  1  0.283236  0.113220  0.454497  1
  O  O43  1  0.086520  0.076787  0.652266  1
  O  O44  1  0.511498  0.720825  0.747774  1
  O  O45  1  0.801285  0.144177  0.458910  1
  O  O46  1  0.711868  0.322380  0.547334  1
  O  O47  1  0.602311  0.545211  0.659213  1
  O  O48  1  0.401657  0.941206  0.859136  1
  O  O49  1  0.317059  0.684450  0.945880  1
  O  O50  1  0.517153  0.288584  0.746870  1
  O  O51  1  0.956362  0.720322  0.748015  1
  O  O52  1  0.641575  0.076724  0.652444  1
  O  O53  1  0.880373  0.905070  0.853180  1
  O  O54  1  0.441220  0.474548  0.852772  1
  O  O55  1  0.884516  0.472631  0.852502  1
  O  O56  1  0.997145  0.252759  0.740960  1
  O  O57  1  0.798008  0.651479  0.941198  1
  O  O58  1  0.307671  0.122162  0.945874  1
  O  O59  1  0.762760  0.123598  0.946232  1
