# generated using pymatgen
data_LiV(SiO3)2
_symmetry_space_group_name_H-M   'P 1'
_cell_length_a   18.34590021
_cell_length_b   8.77288423
_cell_length_c   5.30904181
_cell_angle_alpha   90.00000000
_cell_angle_beta   90.00000000
_cell_angle_gamma   90.00000000
_symmetry_Int_Tables_number   1
_chemical_formula_structural   LiV(SiO3)2
_chemical_formula_sum   'Li8 V8 Si16 O48'
_cell_volume   854.47147808
_cell_formula_units_Z   8
loop_
 _symmetry_equiv_pos_site_id
 _symmetry_equiv_pos_as_xyz
  1  'x, y, z'
loop_
 _atom_site_type_symbol
 _atom_site_label
 _atom_site_symmetry_multiplicity
 _atom_site_fract_x
 _atom_site_fract_y
 _atom_site_fract_z
 _atom_site_occupancy
  Li  Li0  1  0.123572  0.987697  0.368950  1
  Li  Li1  1  0.123572  0.512303  0.868950  1
  Li  Li2  1  0.376428  0.012303  0.868950  1
  Li  Li3  1  0.376428  0.487697  0.368950  1
  Li  Li4  1  0.623572  0.512303  0.631050  1
  Li  Li5  1  0.623572  0.987697  0.131050  1
  Li  Li6  1  0.876428  0.012303  0.631050  1
  Li  Li7  1  0.876428  0.487697  0.131050  1
  V  V8  1  0.124410  0.347493  0.373072  1
  V  V9  1  0.124410  0.152507  0.873072  1
  V  V10  1  0.375590  0.652507  0.873072  1
  V  V11  1  0.375590  0.847493  0.373072  1
  V  V12  1  0.624410  0.152507  0.626928  1
  V  V13  1  0.624410  0.347493  0.126928  1
  V  V14  1  0.875590  0.652507  0.626928  1
  V  V15  1  0.875590  0.847493  0.126928  1
  Si  Si16  1  0.026727  0.663346  0.293543  1
  Si  Si17  1  0.026727  0.836654  0.793543  1
  Si  Si18  1  0.225940  0.660350  0.549447  1
  Si  Si19  1  0.225940  0.839650  0.049447  1
  Si  Si20  1  0.274060  0.160350  0.549447  1
  Si  Si21  1  0.274060  0.339650  0.049447  1
  Si  Si22  1  0.473273  0.163346  0.293543  1
  Si  Si23  1  0.473273  0.336654  0.793543  1
  Si  Si24  1  0.526727  0.663346  0.206457  1
  Si  Si25  1  0.526727  0.836654  0.706457  1
  Si  Si26  1  0.725940  0.660350  0.950553  1
  Si  Si27  1  0.725940  0.839650  0.450553  1
  Si  Si28  1  0.774060  0.160350  0.950553  1
  Si  Si29  1  0.774060  0.339650  0.450553  1
  Si  Si30  1  0.973273  0.163346  0.206457  1
  Si  Si31  1  0.973273  0.336654  0.706457  1
  O  O32  1  0.052996  0.707440  0.583231  1
  O  O33  1  0.052996  0.792560  0.083231  1
  O  O34  1  0.063628  0.166962  0.206334  1
  O  O35  1  0.063628  0.333038  0.706334  1
  O  O36  1  0.064589  0.504855  0.208302  1
  O  O37  1  0.064589  0.995145  0.708302  1
  O  O38  1  0.184020  0.165896  0.542538  1
  O  O39  1  0.184020  0.334104  0.042538  1
  O  O40  1  0.190197  0.007623  0.039719  1
  O  O41  1  0.190197  0.492377  0.539719  1
  O  O42  1  0.195998  0.729589  0.820835  1
  O  O43  1  0.195998  0.770411  0.320835  1
  O  O44  1  0.304002  0.229589  0.820835  1
  O  O45  1  0.304002  0.270411  0.320835  1
  O  O46  1  0.309803  0.507623  0.039719  1
  O  O47  1  0.309803  0.992377  0.539719  1
  O  O48  1  0.315980  0.665896  0.542538  1
  O  O49  1  0.315980  0.834104  0.042538  1
  O  O50  1  0.435411  0.004855  0.208302  1
  O  O51  1  0.435411  0.495145  0.708302  1
  O  O52  1  0.436372  0.666962  0.206334  1
  O  O53  1  0.436372  0.833038  0.706334  1
  O  O54  1  0.447004  0.207440  0.583231  1
  O  O55  1  0.447004  0.292560  0.083231  1
  O  O56  1  0.552996  0.707440  0.916769  1
  O  O57  1  0.552996  0.792560  0.416769  1
  O  O58  1  0.563628  0.166962  0.293666  1
  O  O59  1  0.563628  0.333038  0.793666  1
  O  O60  1  0.564589  0.504855  0.291698  1
  O  O61  1  0.564589  0.995145  0.791698  1
  O  O62  1  0.684020  0.165896  0.957462  1
  O  O63  1  0.684020  0.334104  0.457462  1
  O  O64  1  0.690197  0.007623  0.460281  1
  O  O65  1  0.690197  0.492377  0.960281  1
  O  O66  1  0.695998  0.729589  0.679165  1
  O  O67  1  0.695998  0.770411  0.179165  1
  O  O68  1  0.804002  0.229589  0.679165  1
  O  O69  1  0.804002  0.270411  0.179165  1
  O  O70  1  0.809803  0.507623  0.460281  1
  O  O71  1  0.809803  0.992377  0.960281  1
  O  O72  1  0.815980  0.665896  0.957462  1
  O  O73  1  0.815980  0.834104  0.457462  1
  O  O74  1  0.935411  0.004855  0.291698  1
  O  O75  1  0.935411  0.495145  0.791698  1
  O  O76  1  0.936372  0.666962  0.293666  1
  O  O77  1  0.936372  0.833038  0.793666  1
  O  O78  1  0.947004  0.207440  0.916769  1
  O  O79  1  0.947004  0.292560  0.416769  1
