# generated using pymatgen
data_Li6Mn3P8O29
_symmetry_space_group_name_H-M   'P 1'
_cell_length_a   9.75223295
_cell_length_b   9.72740106
_cell_length_c   13.92022725
_cell_angle_alpha   89.97553106
_cell_angle_beta   89.98656899
_cell_angle_gamma   59.96266825
_symmetry_Int_Tables_number   1
_chemical_formula_structural   Li6Mn3P8O29
_chemical_formula_sum   'Li12 Mn6 P16 O58'
_cell_volume   1143.17919126
_cell_formula_units_Z   2
loop_
 _symmetry_equiv_pos_site_id
 _symmetry_equiv_pos_as_xyz
  1  'x, y, z'
loop_
 _atom_site_type_symbol
 _atom_site_label
 _atom_site_symmetry_multiplicity
 _atom_site_fract_x
 _atom_site_fract_y
 _atom_site_fract_z
 _atom_site_occupancy
  Li  Li0  1  0.031214  0.957522  0.508727  1
  Li  Li1  1  0.101838  0.233607  0.562102  1
  Li  Li2  1  0.098053  0.677279  0.058209  1
  Li  Li3  1  0.664921  0.097843  0.562926  1
  Li  Li4  1  0.316428  0.776373  0.937509  1
  Li  Li5  1  0.678124  0.229255  0.059250  1
  Li  Li6  1  0.337899  0.896445  0.441674  1
  Li  Li7  1  0.763773  0.334348  0.441253  1
  Li  Li8  1  0.664111  0.667554  0.114843  1
  Li  Li9  1  0.915255  0.309748  0.937012  1
  Li  Li10  1  0.773737  0.908275  0.936031  1
  Li  Li11  1  0.904650  0.760051  0.441221  1
  Mn  Mn12  1  0.001343  0.433501  0.749610  1
  Mn  Mn13  1  0.000382  0.566832  0.250750  1
  Mn  Mn14  1  0.431588  -0.000077  0.249327  1
  Mn  Mn15  1  0.563206  0.001504  0.751203  1
  Mn  Mn16  1  0.431912  0.566806  0.747695  1
  Mn  Mn17  1  0.565424  0.435165  0.252394  1
  P  P18  1  0.088671  0.229611  0.340134  1
  P  P19  1  0.230990  0.088901  0.841223  1
  P  P20  1  0.090376  0.677743  0.839290  1
  P  P21  1  0.334382  0.332485  0.130297  1
  P  P22  1  0.333858  0.334216  0.629971  1
  P  P23  1  0.226198  0.687286  0.340883  1
  P  P24  1  0.322643  0.769553  0.157524  1
  P  P25  1  0.679797  0.088749  0.341407  1
  P  P26  1  0.318299  0.910140  0.658922  1
  P  P27  1  0.675750  0.233764  0.840723  1
  P  P28  1  0.770798  0.318330  0.659201  1
  P  P29  1  0.666450  0.665851  0.871412  1
  P  P30  1  0.666843  0.667127  0.373090  1
  P  P31  1  0.908531  0.322580  0.157475  1
  P  P32  1  0.768059  0.909442  0.158553  1
  P  P33  1  0.908867  0.773582  0.658128  1
  O  O34  1  0.999851  0.210878  0.248130  1
  O  O35  1  0.988817  0.249970  0.065727  1
  O  O36  1  0.080843  0.256579  0.840531  1
  O  O37  1  0.204195  0.008449  0.745854  1
  O  O38  1  0.231114  0.993714  0.566829  1
  O  O39  1  0.255251  0.079645  0.340313  1
  O  O40  1  0.097899  0.381544  0.327965  1
  O  O41  1  0.185465  0.323153  0.664640  1
  O  O42  1  0.106310  0.514386  0.823240  1
  O  O43  1  0.983227  0.787552  0.566405  1
  O  O44  1  0.999917  0.792214  0.749430  1
  O  O45  1  0.079809  0.664364  0.340649  1
  O  O46  1  0.328094  0.187638  0.171254  1
  O  O47  1  0.378461  0.105120  0.825320  1
  O  O48  1  0.183099  0.489571  0.164667  1
  O  O49  1  0.338470  0.335385  0.022554  1
  O  O50  1  0.338185  0.324546  0.522215  1
  O  O51  1  0.322085  0.488703  0.669593  1
  O  O52  1  0.521141  0.095580  0.328202  1
  O  O53  1  0.491251  0.185569  0.667678  1
  O  O54  1  0.254980  0.664575  0.840181  1
  O  O55  1  0.206616  0.786674  0.243715  1
  O  O56  1  0.251584  0.751591  0.066237  1
  O  O57  1  0.212782  0.790664  0.424596  1
  O  O58  1  0.380412  0.527635  0.331621  1
  O  O59  1  0.488637  0.329776  0.167421  1
  O  O60  1  0.337982  0.743927  0.661114  1
  O  O61  1  0.514355  0.381062  0.823314  1
  O  O62  1  0.663031  0.081529  0.841378  1
  O  O63  1  0.235637  0.996650  0.927304  1
  O  O64  1  0.754009  0.999249  0.067991  1
  O  O65  1  0.788852  0.000137  0.248747  1
  O  O66  1  0.338593  0.918614  0.159246  1
  O  O67  1  0.491345  0.624562  0.176710  1
  O  O68  1  0.663203  0.255453  0.341326  1
  O  O69  1  0.510802  0.673848  0.835010  1
  O  O70  1  0.619189  0.479050  0.670969  1
  O  O71  1  0.773986  0.228785  0.568966  1
  O  O72  1  0.754940  0.242563  0.931502  1
  O  O73  1  0.791450  0.208626  0.750848  1
  O  O74  1  0.741804  0.337883  0.160639  1
  O  O75  1  0.508706  0.812478  0.335217  1
  O  O76  1  0.477957  0.904356  0.671143  1
  O  O77  1  0.680149  0.508291  0.335758  1
  O  O78  1  0.667611  0.665463  0.980189  1
  O  O79  1  0.667108  0.667132  0.480876  1
  O  O80  1  0.814743  0.510203  0.834537  1
  O  O81  1  0.625624  0.883214  0.175897  1
  O  O82  1  0.674807  0.814449  0.835501  1
  O  O83  1  0.919988  0.335709  0.658931  1
  O  O84  1  0.003602  0.227759  0.430834  1
  O  O85  1  0.884569  0.491390  0.176487  1
  O  O86  1  0.812386  0.679480  0.335438  1
  O  O87  1  0.904784  0.618925  0.669850  1
  O  O88  1  0.740449  0.921319  0.662337  1
  O  O89  1  0.768890  0.002729  0.431229  1
  O  O90  1  0.920326  0.744575  0.157409  1
  O  O91  1  0.002150  0.755930  0.930532  1
