# generated using pymatgen
data_La4MnO8
_symmetry_space_group_name_H-M   'P 1'
_cell_length_a   5.38409678
_cell_length_b   6.89397940
_cell_length_c   5.40897175
_cell_angle_alpha   90.00103096
_cell_angle_beta   90.00063796
_cell_angle_gamma   112.98198127
_symmetry_Int_Tables_number   1
_chemical_formula_structural   La4MnO8
_chemical_formula_sum   'La4 Mn1 O8'
_cell_volume   184.83388156
_cell_formula_units_Z   1
loop_
 _symmetry_equiv_pos_site_id
 _symmetry_equiv_pos_as_xyz
  1  'x, y, z'
loop_
 _atom_site_type_symbol
 _atom_site_label
 _atom_site_symmetry_multiplicity
 _atom_site_fract_x
 _atom_site_fract_y
 _atom_site_fract_z
 _atom_site_occupancy
  La  La0  1  0.135243  0.270327  0.500011  1
  La  La1  1  0.633361  0.266719  0.000012  1
  La  La2  1  0.366616  0.733285  0.000003  1
  La  La3  1  0.864802  0.729666  0.499970  1
  Mn  Mn4  1  -0.000002  0.000007  0.000005  1
  O  O5  1  0.249292  0.999978  0.238830  1
  O  O6  1  0.249291  0.999972  0.761154  1
  O  O7  1  0.750702  0.000030  0.238834  1
  O  O8  1  0.750701  0.000028  0.761161  1
  O  O9  1  0.162740  0.325469  0.000009  1
  O  O10  1  0.688770  0.377632  0.499993  1
  O  O11  1  0.311219  0.622348  0.500020  1
  O  O12  1  0.837263  0.674540  -0.000000  1
