# generated using pymatgen
data_V3(O2F)2
_symmetry_space_group_name_H-M   'P 1'
_cell_length_a   5.11601175
_cell_length_b   5.57731483
_cell_length_c   5.09452425
_cell_angle_alpha   91.83989078
_cell_angle_beta   61.48636013
_cell_angle_gamma   63.53558954
_symmetry_Int_Tables_number   1
_chemical_formula_structural   V3(O2F)2
_chemical_formula_sum   'V3 O4 F2'
_cell_volume   108.66781486
_cell_formula_units_Z   1
loop_
 _symmetry_equiv_pos_site_id
 _symmetry_equiv_pos_as_xyz
  1  'x, y, z'
loop_
 _atom_site_type_symbol
 _atom_site_label
 _atom_site_symmetry_multiplicity
 _atom_site_fract_x
 _atom_site_fract_y
 _atom_site_fract_z
 _atom_site_occupancy
  V  V0  1  0.314252  0.060290  0.346961  1
  V  V1  1  0.732059  0.434855  0.136751  1
  V  V2  1  0.681769  0.990618  0.644302  1
  O  O3  1  0.536227  0.213752  0.068180  1
  O  O4  1  0.180525  0.242842  0.751021  1
  O  O5  1  0.880569  0.199929  0.399937  1
  O  O6  1  0.722163  0.766302  0.311045  1
  F  F7  1  0.186779  0.740793  0.519470  1
  F  F8  1  0.533893  0.754839  0.929337  1
