# generated using pymatgen
data_La4MnO8
_symmetry_space_group_name_H-M   'P 1'
_cell_length_a   5.38733511
_cell_length_b   5.38733511
_cell_length_c   13.31471565
_cell_angle_alpha   78.32806895
_cell_angle_beta   101.67193105
_cell_angle_gamma   90.00000000
_symmetry_Int_Tables_number   1
_chemical_formula_structural   La4MnO8
_chemical_formula_sum   'La8 Mn2 O16'
_cell_volume   370.28414321
_cell_formula_units_Z   2
loop_
 _symmetry_equiv_pos_site_id
 _symmetry_equiv_pos_as_xyz
  1  'x, y, z'
loop_
 _atom_site_type_symbol
 _atom_site_label
 _atom_site_symmetry_multiplicity
 _atom_site_fract_x
 _atom_site_fract_y
 _atom_site_fract_z
 _atom_site_occupancy
  La  La0  1  0.431392  0.068608  0.862785  1
  La  La1  1  0.068608  0.431392  0.137215  1
  La  La2  1  0.681392  0.318608  0.362785  1
  La  La3  1  0.815299  0.184701  0.630599  1
  La  La4  1  0.318608  0.681392  0.637215  1
  La  La5  1  0.184701  0.815299  0.369401  1
  La  La6  1  0.565299  0.934701  0.130599  1
  La  La7  1  0.934701  0.565299  0.869401  1
  Mn  Mn8  1  0.000000  0.000000  0.000000  1
  Mn  Mn9  1  0.750000  0.750000  0.500000  1
  O  O10  1  0.994189  0.994189  0.500000  1
  O  O11  1  0.343468  0.156532  0.686937  1
  O  O12  1  0.244189  0.244189  0.000000  1
  O  O13  1  0.505811  0.994189  0.500000  1
  O  O14  1  0.994189  0.505811  0.500000  1
  O  O15  1  0.156532  0.343468  0.313063  1
  O  O16  1  0.406532  0.593468  0.813063  1
  O  O17  1  0.244189  0.755811  0.000000  1
  O  O18  1  0.505811  0.505811  0.500000  1
  O  O19  1  0.593468  0.406532  0.186937  1
  O  O20  1  0.081483  0.918517  0.162966  1
  O  O21  1  0.918517  0.081483  0.837034  1
  O  O22  1  0.755811  0.244189  0.000000  1
  O  O23  1  0.755811  0.755811  0.000000  1
  O  O24  1  0.668517  0.831483  0.337034  1
  O  O25  1  0.831483  0.668517  0.662966  1
