# generated using pymatgen
data_MnCoO4
_symmetry_space_group_name_H-M   'P 1'
_cell_length_a   2.89859467
_cell_length_b   5.75835477
_cell_length_c   9.91470172
_cell_angle_alpha   90.00000000
_cell_angle_beta   90.00000000
_cell_angle_gamma   59.82275343
_symmetry_Int_Tables_number   1
_chemical_formula_structural   MnCoO4
_chemical_formula_sum   'Mn2 Co2 O8'
_cell_volume   143.05984307
_cell_formula_units_Z   2
loop_
 _symmetry_equiv_pos_site_id
 _symmetry_equiv_pos_as_xyz
  1  'x, y, z'
loop_
 _atom_site_type_symbol
 _atom_site_label
 _atom_site_symmetry_multiplicity
 _atom_site_fract_x
 _atom_site_fract_y
 _atom_site_fract_z
 _atom_site_occupancy
  Mn  Mn0  1  -0.000007  0.500021  0.999961  1
  Mn  Mn1  1  0.500007  0.249979  0.499961  1
  Co  Co2  1  0.499908  0.750072  0.500028  1
  Co  Co3  1  0.000092  0.999928  0.000028  1
  O  O4  1  0.660409  0.839446  0.095100  1
  O  O5  1  0.328247  0.671884  0.903797  1
  O  O6  1  0.160283  0.589530  0.404816  1
  O  O7  1  0.839591  0.910554  0.595100  1
  O  O8  1  0.171753  0.078116  0.403797  1
  O  O9  1  0.671644  0.328240  0.096298  1
  O  O10  1  0.339717  0.160470  0.904816  1
  O  O11  1  0.828356  0.421760  0.596297  1
