# generated using pymatgen
data_LiVF6
_symmetry_space_group_name_H-M   'P 1'
_cell_length_a   4.96015558
_cell_length_b   4.95976536
_cell_length_c   4.63477396
_cell_angle_alpha   89.93036589
_cell_angle_beta   90.05951779
_cell_angle_gamma   60.00626770
_symmetry_Int_Tables_number   1
_chemical_formula_structural   LiVF6
_chemical_formula_sum   'Li1 V1 F6'
_cell_volume   98.75109953
_cell_formula_units_Z   1
loop_
 _symmetry_equiv_pos_site_id
 _symmetry_equiv_pos_as_xyz
  1  'x, y, z'
loop_
 _atom_site_type_symbol
 _atom_site_label
 _atom_site_symmetry_multiplicity
 _atom_site_fract_x
 _atom_site_fract_y
 _atom_site_fract_z
 _atom_site_occupancy
  Li  Li0  1  0.667068  0.666990  0.500074  1
  V  V1  1  0.000159  -0.000016  0.000055  1
  F  F2  1  0.983246  0.711476  0.229667  1
  F  F3  1  0.305695  0.711716  0.771023  1
  F  F4  1  0.711654  0.983091  0.770234  1
  F  F5  1  0.305878  0.982936  0.229788  1
  F  F6  1  0.711898  0.305530  0.228873  1
  F  F7  1  0.983118  0.305794  0.770044  1
