# generated using pymatgen
data_Li6Co2C4SO16
_symmetry_space_group_name_H-M   'P 1'
_cell_length_a   9.37427454
_cell_length_b   9.37427475
_cell_length_c   9.37427448
_cell_angle_alpha   60.00000160
_cell_angle_beta   59.99999980
_cell_angle_gamma   60.00000075
_symmetry_Int_Tables_number   1
_chemical_formula_structural   Li6Co2C4SO16
_chemical_formula_sum   'Li12 Co4 C8 S2 O32'
_cell_volume   582.50280564
_cell_formula_units_Z   2
loop_
 _symmetry_equiv_pos_site_id
 _symmetry_equiv_pos_as_xyz
  1  'x, y, z'
loop_
 _atom_site_type_symbol
 _atom_site_label
 _atom_site_symmetry_multiplicity
 _atom_site_fract_x
 _atom_site_fract_y
 _atom_site_fract_z
 _atom_site_occupancy
  Li  Li0  1  0.093410  0.656590  0.093410  1
  Li  Li1  1  0.093410  0.093410  0.656590  1
  Li  Li2  1  0.093410  0.656590  0.656590  1
  Li  Li3  1  0.656590  0.093410  0.093410  1
  Li  Li4  1  0.343410  0.906590  0.343410  1
  Li  Li5  1  0.343410  0.343410  0.906590  1
  Li  Li6  1  0.656590  0.656590  0.093410  1
  Li  Li7  1  0.656590  0.093410  0.656590  1
  Li  Li8  1  0.906590  0.343410  0.343410  1
  Li  Li9  1  0.343410  0.906590  0.906590  1
  Li  Li10  1  0.906590  0.343410  0.906590  1
  Li  Li11  1  0.906590  0.906590  0.343410  1
  Co  Co12  1  0.000000  0.500000  0.500000  1
  Co  Co13  1  0.500000  0.500000  0.000000  1
  Co  Co14  1  0.500000  0.000000  0.500000  1
  Co  Co15  1  0.500000  0.500000  0.500000  1
  C  C16  1  0.275887  0.275887  0.275887  1
  C  C17  1  0.275887  0.275887  0.672340  1
  C  C18  1  0.275887  0.672340  0.275887  1
  C  C19  1  0.672340  0.275887  0.275887  1
  C  C20  1  0.327660  0.724113  0.724113  1
  C  C21  1  0.724113  0.327660  0.724113  1
  C  C22  1  0.724113  0.724113  0.327660  1
  C  C23  1  0.724113  0.724113  0.724113  1
  S  S24  1  0.125000  0.125000  0.125000  1
  S  S25  1  0.875000  0.875000  0.875000  1
  O  O26  1  0.059895  0.059895  0.059895  1
  O  O27  1  0.059895  0.059895  0.320316  1
  O  O28  1  0.059895  0.320316  0.059895  1
  O  O29  1  0.320316  0.059895  0.059895  1
  O  O30  1  0.132307  0.408552  0.285797  1
  O  O31  1  0.285797  0.132307  0.408552  1
  O  O32  1  0.132307  0.285797  0.673344  1
  O  O33  1  0.408552  0.285797  0.132307  1
  O  O34  1  0.132307  0.673344  0.408552  1
  O  O35  1  0.285797  0.673344  0.132307  1
  O  O36  1  0.408552  0.132307  0.673344  1
  O  O37  1  0.285797  0.408552  0.673344  1
  O  O38  1  0.673344  0.132307  0.285797  1
  O  O39  1  0.408552  0.673344  0.285797  1
  O  O40  1  0.673344  0.408552  0.132307  1
  O  O41  1  0.326656  0.714203  0.591448  1
  O  O42  1  0.673344  0.285797  0.408552  1
  O  O43  1  0.326656  0.591448  0.867693  1
  O  O44  1  0.591448  0.326656  0.714203  1
  O  O45  1  0.326656  0.867693  0.714203  1
  O  O46  1  0.714203  0.591448  0.326656  1
  O  O47  1  0.591448  0.867693  0.326656  1
  O  O48  1  0.714203  0.326656  0.867693  1
  O  O49  1  0.867693  0.326656  0.591448  1
  O  O50  1  0.591448  0.714203  0.867693  1
  O  O51  1  0.867693  0.714203  0.326656  1
  O  O52  1  0.714203  0.867693  0.591448  1
  O  O53  1  0.867693  0.591448  0.714203  1
  O  O54  1  0.679684  0.940105  0.940105  1
  O  O55  1  0.940105  0.679684  0.940105  1
  O  O56  1  0.940105  0.940105  0.679684  1
  O  O57  1  0.940105  0.940105  0.940105  1
