# generated using pymatgen
data_Rb2LiV(PO4)2
_symmetry_space_group_name_H-M   'P 1'
_cell_length_a   7.29474319
_cell_length_b   9.69228064
_cell_length_c   12.73858298
_cell_angle_alpha   89.99992128
_cell_angle_beta   90.00052248
_cell_angle_gamma   90.00017836
_symmetry_Int_Tables_number   1
_chemical_formula_structural   Rb2LiV(PO4)2
_chemical_formula_sum   'Rb8 Li4 V4 P8 O32'
_cell_volume   900.65218784
_cell_formula_units_Z   4
loop_
 _symmetry_equiv_pos_site_id
 _symmetry_equiv_pos_as_xyz
  1  'x, y, z'
loop_
 _atom_site_type_symbol
 _atom_site_label
 _atom_site_symmetry_multiplicity
 _atom_site_fract_x
 _atom_site_fract_y
 _atom_site_fract_z
 _atom_site_occupancy
  Rb  Rb0  1  0.767704  0.306197  0.901450  1
  Rb  Rb1  1  0.808260  0.910652  0.090819  1
  Rb  Rb2  1  0.691746  0.089343  0.590829  1
  Rb  Rb3  1  0.732300  0.693801  0.401449  1
  Rb  Rb4  1  0.267703  0.193800  0.098555  1
  Rb  Rb5  1  0.308249  0.589344  0.909174  1
  Rb  Rb6  1  0.191749  0.410655  0.409176  1
  Rb  Rb7  1  0.232296  0.806200  0.598551  1
  Li  Li8  1  0.869894  0.621108  0.994650  1
  Li  Li9  1  0.630096  0.378878  0.494644  1
  Li  Li10  1  0.369904  0.878887  0.005352  1
  Li  Li11  1  0.130087  0.121122  0.505350  1
  V  V12  1  0.752139  0.250056  0.300496  1
  V  V13  1  0.747861  0.749936  0.800491  1
  V  V14  1  0.252131  0.249939  0.699512  1
  V  V15  1  0.247864  0.750061  0.199505  1
  P  P16  1  0.981967  0.473901  0.150564  1
  P  P17  1  0.919029  0.487948  0.672491  1
  P  P18  1  0.580976  0.512058  0.172507  1
  P  P19  1  0.518038  0.526099  0.650550  1
  P  P20  1  0.481965  0.026103  0.849443  1
  P  P21  1  0.419022  0.012051  0.327505  1
  P  P22  1  0.080970  0.987947  0.827499  1
  P  P23  1  0.018033  0.973902  0.349439  1
  O  O24  1  0.987773  0.847390  0.811176  1
  O  O25  1  0.974504  0.571773  0.577245  1
  O  O26  1  0.973691  0.961559  0.466448  1
  O  O27  1  0.938428  0.331597  0.199131  1
  O  O28  1  0.908839  0.566851  0.777243  1
  O  O29  1  0.880050  0.053608  0.283393  1
  O  O30  1  0.825961  0.288336  0.432414  1
  O  O31  1  0.795264  0.569210  0.151912  1
  O  O32  1  0.704743  0.430790  0.651902  1
  O  O33  1  0.674039  0.711644  0.932406  1
  O  O34  1  0.619947  0.946391  0.783403  1
  O  O35  1  0.591162  0.433156  0.277251  1
  O  O36  1  0.561578  0.668407  0.699120  1
  O  O37  1  0.526301  0.038445  0.966454  1
  O  O38  1  0.525503  0.428218  0.077252  1
  O  O39  1  0.512232  0.152604  0.311179  1
  O  O40  1  0.487782  0.652616  0.188826  1
  O  O41  1  0.474482  0.928212  0.422754  1
  O  O42  1  0.473700  0.538439  0.533544  1
  O  O43  1  0.438431  0.168409  0.800874  1
  O  O44  1  0.408832  0.933152  0.222753  1
  O  O45  1  0.380057  0.446390  0.716598  1
  O  O46  1  0.325949  0.211659  0.567593  1
  O  O47  1  0.295258  0.930797  0.848090  1
  O  O48  1  0.204737  0.069213  0.348091  1
  O  O49  1  0.174043  0.788353  0.067587  1
  O  O50  1  0.119954  0.553610  0.216602  1
  O  O51  1  0.091149  0.066852  0.722756  1
  O  O52  1  0.061577  0.831596  0.300870  1
  O  O53  1  0.026302  0.461556  0.033550  1
  O  O54  1  0.025502  0.071784  0.922755  1
  O  O55  1  0.012227  0.347389  0.688828  1
