# generated using pymatgen
data_Li4Mn5O10
_symmetry_space_group_name_H-M   'P 1'
_cell_length_a   7.98751708
_cell_length_b   5.23620513
_cell_length_c   5.19379256
_cell_angle_alpha   86.53022498
_cell_angle_beta   89.29211005
_cell_angle_gamma   71.86008961
_symmetry_Int_Tables_number   1
_chemical_formula_structural   Li4Mn5O10
_chemical_formula_sum   'Li4 Mn5 O10'
_cell_volume   206.04702851
_cell_formula_units_Z   1
loop_
 _symmetry_equiv_pos_site_id
 _symmetry_equiv_pos_as_xyz
  1  'x, y, z'
loop_
 _atom_site_type_symbol
 _atom_site_label
 _atom_site_symmetry_multiplicity
 _atom_site_fract_x
 _atom_site_fract_y
 _atom_site_fract_z
 _atom_site_occupancy
  Li  Li0  1  0.202960  0.125793  0.564975  1
  Li  Li1  1  0.208546  0.690295  0.426839  1
  Li  Li2  1  0.589200  0.525264  0.417821  1
  Li  Li3  1  0.800564  0.923312  0.425236  1
  Mn  Mn4  1  0.005299  0.994660  0.999719  1
  Mn  Mn5  1  0.198937  0.408538  0.009926  1
  Mn  Mn6  1  0.595118  0.198056  0.973911  1
  Mn  Mn7  1  0.398628  0.800421  0.984050  1
  Mn  Mn8  1  0.801088  0.591070  0.980549  1
  O  O9  1  0.010279  0.335902  0.818153  1
  O  O10  1  0.210407  0.021766  0.208348  1
  O  O11  1  0.390239  0.145916  0.806932  1
  O  O12  1  0.015060  0.670139  0.210677  1
  O  O13  1  0.217251  0.771776  0.770016  1
  O  O14  1  0.386616  0.488548  0.197894  1
  O  O15  1  0.575056  0.547509  0.782932  1
  O  O16  1  0.769366  0.271070  0.191024  1
  O  O17  1  0.606459  0.840430  0.178960  1
  O  O18  1  0.818912  0.916178  0.792760  1
