# generated using pymatgen
data_LiVPO5
_symmetry_space_group_name_H-M   'P 1'
_cell_length_a   12.74251482
_cell_length_b   6.34184091
_cell_length_c   10.58401558
_cell_angle_alpha   90.00000000
_cell_angle_beta   90.00000000
_cell_angle_gamma   90.00000000
_symmetry_Int_Tables_number   1
_chemical_formula_structural   LiVPO5
_chemical_formula_sum   'Li8 V8 P8 O40'
_cell_volume   855.30490189
_cell_formula_units_Z   8
loop_
 _symmetry_equiv_pos_site_id
 _symmetry_equiv_pos_as_xyz
  1  'x, y, z'
loop_
 _atom_site_type_symbol
 _atom_site_label
 _atom_site_symmetry_multiplicity
 _atom_site_fract_x
 _atom_site_fract_y
 _atom_site_fract_z
 _atom_site_occupancy
  Li  Li0  1  0.101753  0.958907  0.034858  1
  Li  Li1  1  0.171409  0.354997  0.763789  1
  Li  Li2  1  0.328591  0.854997  0.263789  1
  Li  Li3  1  0.398247  0.458907  0.534858  1
  Li  Li4  1  0.601753  0.541093  0.034858  1
  Li  Li5  1  0.671409  0.145003  0.763789  1
  Li  Li6  1  0.828591  0.645003  0.263789  1
  Li  Li7  1  0.898247  0.041093  0.534858  1
  V  V8  1  0.128816  0.988299  0.506619  1
  V  V9  1  0.245002  0.272108  0.262684  1
  V  V10  1  0.254998  0.772108  0.762684  1
  V  V11  1  0.371184  0.488299  0.006619  1
  V  V12  1  0.628816  0.511701  0.506619  1
  V  V13  1  0.745002  0.227892  0.262684  1
  V  V14  1  0.754998  0.727892  0.762684  1
  V  V15  1  0.871184  0.011701  0.006619  1
  P  P16  1  0.004723  0.823655  0.772580  1
  P  P17  1  0.185529  0.493670  0.522119  1
  P  P18  1  0.314471  0.993670  0.022119  1
  P  P19  1  0.495277  0.323655  0.272580  1
  P  P20  1  0.504723  0.676345  0.772580  1
  P  P21  1  0.685529  0.006330  0.522119  1
  P  P22  1  0.814471  0.506330  0.022119  1
  P  P23  1  0.995277  0.176345  0.272580  1
  O  O24  1  0.000594  0.032564  0.393167  1
  O  O25  1  0.011808  0.964710  0.652084  1
  O  O26  1  0.093104  0.319077  0.267249  1
  O  O27  1  0.103116  0.678300  0.783452  1
  O  O28  1  0.113195  0.680490  0.493152  1
  O  O29  1  0.120572  0.298051  0.558618  1
  O  O30  1  0.219896  0.021810  0.386337  1
  O  O31  1  0.226719  0.951703  0.645592  1
  O  O32  1  0.235338  0.954982  0.912091  1
  O  O33  1  0.236448  0.030707  0.136108  1
  O  O34  1  0.263552  0.530707  0.636108  1
  O  O35  1  0.264662  0.454981  0.412091  1
  O  O36  1  0.273281  0.451703  0.145592  1
  O  O37  1  0.280104  0.521810  0.886337  1
  O  O38  1  0.379428  0.798051  0.058618  1
  O  O39  1  0.386805  0.180490  0.993152  1
  O  O40  1  0.396884  0.178299  0.283452  1
  O  O41  1  0.406896  0.819077  0.767249  1
  O  O42  1  0.488192  0.464710  0.152084  1
  O  O43  1  0.499406  0.532564  0.893167  1
  O  O44  1  0.500594  0.467436  0.393167  1
  O  O45  1  0.511808  0.535290  0.652084  1
  O  O46  1  0.593104  0.180923  0.267249  1
  O  O47  1  0.603116  0.821700  0.783452  1
  O  O48  1  0.613195  0.819510  0.493152  1
  O  O49  1  0.620572  0.201949  0.558618  1
  O  O50  1  0.719896  0.478190  0.386337  1
  O  O51  1  0.726719  0.548297  0.645592  1
  O  O52  1  0.735338  0.545018  0.912091  1
  O  O53  1  0.736448  0.469293  0.136108  1
  O  O54  1  0.763552  0.969293  0.636108  1
  O  O55  1  0.764662  0.045019  0.412091  1
  O  O56  1  0.773281  0.048297  0.145592  1
  O  O57  1  0.780104  0.978190  0.886337  1
  O  O58  1  0.879428  0.701949  0.058618  1
  O  O59  1  0.886805  0.319510  0.993152  1
  O  O60  1  0.896884  0.321700  0.283452  1
  O  O61  1  0.906896  0.680923  0.767249  1
  O  O62  1  0.988192  0.035290  0.152084  1
  O  O63  1  0.999406  0.967436  0.893167  1
