# generated using pymatgen
data_FeCuS2
_symmetry_space_group_name_H-M   'P 1'
_cell_length_a   3.80613752
_cell_length_b   3.80534562
_cell_length_c   6.25314076
_cell_angle_alpha   90.03952069
_cell_angle_beta   89.96740804
_cell_angle_gamma   119.89433610
_symmetry_Int_Tables_number   1
_chemical_formula_structural   FeCuS2
_chemical_formula_sum   'Fe1 Cu1 S2'
_cell_volume   78.51790949
_cell_formula_units_Z   1
loop_
 _symmetry_equiv_pos_site_id
 _symmetry_equiv_pos_as_xyz
  1  'x, y, z'
loop_
 _atom_site_type_symbol
 _atom_site_label
 _atom_site_symmetry_multiplicity
 _atom_site_fract_x
 _atom_site_fract_y
 _atom_site_fract_z
 _atom_site_occupancy
  Fe  Fe0  1  0.332993  0.666830  0.632019  1
  Cu  Cu1  1  0.666990  0.333220  0.356434  1
  S  S2  1  0.333192  0.666731  0.268641  1
  S  S3  1  0.666826  0.333219  0.742906  1
