# generated using pymatgen
data_Li2CrO4
_symmetry_space_group_name_H-M   'P 1'
_cell_length_a   7.79852694
_cell_length_b   5.39032881
_cell_length_c   5.17030849
_cell_angle_alpha   65.18400537
_cell_angle_beta   109.70091367
_cell_angle_gamma   99.22716366
_symmetry_Int_Tables_number   1
_chemical_formula_structural   Li2CrO4
_chemical_formula_sum   'Li4 Cr2 O8'
_cell_volume   185.68041024
_cell_formula_units_Z   2
loop_
 _symmetry_equiv_pos_site_id
 _symmetry_equiv_pos_as_xyz
  1  'x, y, z'
loop_
 _atom_site_type_symbol
 _atom_site_label
 _atom_site_symmetry_multiplicity
 _atom_site_fract_x
 _atom_site_fract_y
 _atom_site_fract_z
 _atom_site_occupancy
  Li  Li0  1  0.181310  0.283463  0.425963  1
  Li  Li1  1  0.443423  0.741311  0.479011  1
  Li  Li2  1  0.556577  0.258689  0.520988  1
  Li  Li3  1  0.818690  0.716537  0.574037  1
  Cr  Cr4  1  0.246889  0.706132  0.839577  1
  Cr  Cr5  1  0.753111  0.293868  0.160423  1
  O  O6  1  0.053920  0.811394  0.814586  1
  O  O7  1  0.211186  0.503985  0.660568  1
  O  O8  1  0.368137  0.976313  0.665440  1
  O  O9  1  0.360027  0.538522  0.205361  1
  O  O10  1  0.639973  0.461478  0.794639  1
  O  O11  1  0.631863  0.023687  0.334560  1
  O  O12  1  0.788814  0.496015  0.339432  1
  O  O13  1  0.946080  0.188606  0.185414  1
