# generated using pymatgen
data_La4CoO8
_symmetry_space_group_name_H-M   'P 1'
_cell_length_a   5.31874373
_cell_length_b   13.34413034
_cell_length_c   5.31874373
_cell_angle_alpha   78.50446855
_cell_angle_beta   90.00000000
_cell_angle_gamma   78.50446855
_symmetry_Int_Tables_number   1
_chemical_formula_structural   La4CoO8
_chemical_formula_sum   'La8 Co2 O16'
_cell_volume   362.18947182
_cell_formula_units_Z   2
loop_
 _symmetry_equiv_pos_site_id
 _symmetry_equiv_pos_as_xyz
  1  'x, y, z'
loop_
 _atom_site_type_symbol
 _atom_site_label
 _atom_site_symmetry_multiplicity
 _atom_site_fract_x
 _atom_site_fract_y
 _atom_site_fract_z
 _atom_site_occupancy
  La  La0  1  0.315353  0.369296  0.315353  1
  La  La1  1  0.181526  0.636948  0.181526  1
  La  La2  1  0.434647  0.130704  0.934647  1
  La  La3  1  0.065353  0.869296  0.565353  1
  La  La4  1  0.568474  0.863052  0.068474  1
  La  La5  1  0.931526  0.136948  0.431526  1
  La  La6  1  0.818474  0.363052  0.818474  1
  La  La7  1  0.684647  0.630704  0.684647  1
  Co  Co8  1  0.500000  0.000000  0.500000  1
  Co  Co9  1  0.250000  0.500000  0.750000  1
  O  O10  1  0.256731  0.000000  0.256731  1
  O  O11  1  0.006731  0.500000  0.993269  1
  O  O12  1  0.743269  0.000000  0.256731  1
  O  O13  1  0.093286  0.813429  0.093286  1
  O  O14  1  0.419021  0.161958  0.419021  1
  O  O15  1  0.006731  0.500000  0.506731  1
  O  O16  1  0.256731  0.000000  0.743269  1
  O  O17  1  0.493269  0.500000  0.993269  1
  O  O18  1  0.843286  0.313429  0.343286  1
  O  O19  1  0.743269  0.000000  0.743269  1
  O  O20  1  0.330979  0.338042  0.830979  1
  O  O21  1  0.493269  0.500000  0.506731  1
  O  O22  1  0.169021  0.661958  0.669021  1
  O  O23  1  0.656714  0.686571  0.156714  1
  O  O24  1  0.580979  0.838042  0.580979  1
  O  O25  1  0.906714  0.186571  0.906714  1
