# generated using pymatgen
data_Mg(CoO2)2
_symmetry_space_group_name_H-M   'P 1'
_cell_length_a   5.77259561
_cell_length_b   5.77292810
_cell_length_c   5.77262031
_cell_angle_alpha   60.00186762
_cell_angle_beta   59.99990818
_cell_angle_gamma   60.00167071
_symmetry_Int_Tables_number   1
_chemical_formula_structural   Mg(CoO2)2
_chemical_formula_sum   'Mg2 Co4 O8'
_cell_volume   136.03059253
_cell_formula_units_Z   2
loop_
 _symmetry_equiv_pos_site_id
 _symmetry_equiv_pos_as_xyz
  1  'x, y, z'
loop_
 _atom_site_type_symbol
 _atom_site_label
 _atom_site_symmetry_multiplicity
 _atom_site_fract_x
 _atom_site_fract_y
 _atom_site_fract_z
 _atom_site_occupancy
  Mg  Mg0  1  0.875003  0.874997  0.874999  1
  Mg  Mg1  1  0.124999  0.125003  0.124999  1
  Co  Co2  1  0.500000  0.500001  0.500000  1
  Co  Co3  1  0.500000  0.500001  -0.000000  1
  Co  Co4  1  -0.000000  0.500001  0.500000  1
  Co  Co5  1  0.500000  -0.000000  0.500000  1
  O  O6  1  0.264263  0.264274  0.264266  1
  O  O7  1  0.735735  0.735725  0.292804  1
  O  O8  1  0.292803  0.735726  0.735734  1
  O  O9  1  0.735735  0.292798  0.735733  1
  O  O10  1  0.707196  0.264274  0.264266  1
  O  O11  1  0.264266  0.707199  0.264268  1
  O  O12  1  0.264264  0.264275  0.707197  1
  O  O13  1  0.735737  0.735727  0.735735  1
