# generated using pymatgen
data_Li3Mn2Cr2O8
_symmetry_space_group_name_H-M   'P 1'
_cell_length_a   6.00939009
_cell_length_b   10.26010968
_cell_length_c   10.22519487
_cell_angle_alpha   71.68926832
_cell_angle_beta   89.26164887
_cell_angle_gamma   90.24057263
_symmetry_Int_Tables_number   1
_chemical_formula_structural   Li3Mn2Cr2O8
_chemical_formula_sum   'Li12 Mn8 Cr8 O32'
_cell_volume   598.46052848
_cell_formula_units_Z   4
loop_
 _symmetry_equiv_pos_site_id
 _symmetry_equiv_pos_as_xyz
  1  'x, y, z'
loop_
 _atom_site_type_symbol
 _atom_site_label
 _atom_site_symmetry_multiplicity
 _atom_site_fract_x
 _atom_site_fract_y
 _atom_site_fract_z
 _atom_site_occupancy
  Li  Li0  1  0.001773  0.756426  0.748619  1
  Li  Li1  1  0.001101  0.244779  0.256782  1
  Li  Li2  1  0.260447  0.250749  0.493142  1
  Li  Li3  1  0.239553  0.749251  0.006858  1
  Li  Li4  1  0.506009  0.005654  0.996579  1
  Li  Li5  1  0.498227  0.243574  0.751381  1
  Li  Li6  1  0.502490  0.497411  0.498528  1
  Li  Li7  1  0.498899  0.755221  0.243218  1
  Li  Li8  1  0.747378  0.753763  0.500489  1
  Li  Li9  1  0.752622  0.246237  0.999511  1
  Li  Li10  1  0.993991  0.994346  0.503421  1
  Li  Li11  1  0.997510  0.502589  0.001472  1
  Mn  Mn12  1  -0.000025  0.499089  0.499741  1
  Mn  Mn13  1  0.004226  0.998022  0.000389  1
  Mn  Mn14  1  0.250000  0.500000  0.750000  1
  Mn  Mn15  1  0.250000  0.000000  0.250000  1
  Mn  Mn16  1  0.500025  0.500911  0.000259  1
  Mn  Mn17  1  0.495774  0.001978  0.499611  1
  Mn  Mn18  1  0.750000  0.000000  0.750000  1
  Mn  Mn19  1  0.750000  0.000000  0.250000  1
  Cr  Cr20  1  0.250000  0.000000  0.750000  1
  Cr  Cr21  1  0.250000  0.500000  0.250000  1
  Cr  Cr22  1  0.500483  0.751288  0.751807  1
  Cr  Cr23  1  0.502755  0.251047  0.244176  1
  Cr  Cr24  1  0.750000  0.500000  0.750000  1
  Cr  Cr25  1  0.750000  0.500000  0.250000  1
  Cr  Cr26  1  -0.000483  0.248712  0.748193  1
  Cr  Cr27  1  0.997245  0.748953  0.255824  1
  O  O28  1  0.003012  0.392866  0.371627  1
  O  O29  1  0.021075  0.886241  0.880534  1
  O  O30  1  0.992838  0.102660  0.134445  1
  O  O31  1  0.230263  0.383897  0.625271  1
  O  O32  1  0.227150  0.123954  0.867175  1
  O  O33  1  0.272850  0.876046  0.632825  1
  O  O34  1  0.222190  0.614705  0.376164  1
  O  O35  1  0.269737  0.616103  0.874729  1
  O  O36  1  0.242519  0.870947  0.144857  1
  O  O37  1  0.257481  0.129053  0.355143  1
  O  O38  1  0.277810  0.385295  0.123836  1
  O  O39  1  0.478925  0.113759  0.619466  1
  O  O40  1  0.497737  0.394930  0.867829  1
  O  O41  1  0.507162  0.897340  0.365555  1
  O  O42  1  0.502359  0.889300  0.856773  1
  O  O43  1  0.496983  0.611726  0.645517  1
  O  O44  1  0.494304  0.383465  0.355710  1
  O  O45  1  0.496988  0.607134  0.128373  1
  O  O46  1  0.534162  0.118546  0.134202  1
  O  O47  1  0.742848  0.871178  0.637848  1
  O  O48  1  0.722528  0.615270  0.874085  1
  O  O49  1  0.777472  0.384730  0.625915  1
  O  O50  1  0.757152  0.128822  0.862152  1
  O  O51  1  0.731648  0.120584  0.361641  1
  O  O52  1  0.729576  0.385039  0.119897  1
  O  O53  1  0.770424  0.614961  0.380103  1
  O  O54  1  0.768352  0.879416  0.138359  1
  O  O55  1  0.003017  0.388274  0.854483  1
  O  O56  1  0.997641  0.110700  0.643227  1
  O  O57  1  0.002263  0.605070  0.632171  1
  O  O58  1  0.965838  0.881454  0.365798  1
  O  O59  1  0.005696  0.616535  0.144290  1
