# generated using pymatgen
data_Li2Fe(PO4)2
_symmetry_space_group_name_H-M   'P 1'
_cell_length_a   8.32347787
_cell_length_b   10.72689318
_cell_length_c   8.26457138
_cell_angle_alpha   88.75301374
_cell_angle_beta   103.79645290
_cell_angle_gamma   89.65232470
_symmetry_Int_Tables_number   1
_chemical_formula_structural   Li2Fe(PO4)2
_chemical_formula_sum   'Li8 Fe4 P8 O32'
_cell_volume   716.39566126
_cell_formula_units_Z   4
loop_
 _symmetry_equiv_pos_site_id
 _symmetry_equiv_pos_as_xyz
  1  'x, y, z'
loop_
 _atom_site_type_symbol
 _atom_site_label
 _atom_site_symmetry_multiplicity
 _atom_site_fract_x
 _atom_site_fract_y
 _atom_site_fract_z
 _atom_site_occupancy
  Li  Li0  1  0.222148  0.445321  0.450984  1
  Li  Li1  1  0.293521  0.918179  0.552312  1
  Li  Li2  1  0.399607  0.172632  0.391490  1
  Li  Li3  1  0.721632  0.072128  0.461017  1
  Li  Li4  1  0.847686  0.657994  0.844566  1
  Li  Li5  1  0.780840  0.565371  0.529236  1
  Li  Li6  1  0.839467  0.838840  0.361702  1
  Li  Li7  1  0.908685  0.325798  0.392137  1
  Fe  Fe8  1  0.098146  0.840276  0.100009  1
  Fe  Fe9  1  0.409796  0.336389  0.908332  1
  Fe  Fe10  1  0.584949  0.664386  0.097619  1
  Fe  Fe11  1  0.911418  0.160482  0.907641  1
  P  P12  1  0.041445  0.408046  0.762364  1
  P  P13  1  0.032668  0.080679  0.288916  1
  P  P14  1  0.477006  0.584775  0.721382  1
  P  P15  1  0.542190  0.094392  0.766776  1
  P  P16  1  0.454627  0.907800  0.236926  1
  P  P17  1  0.530678  0.414343  0.284526  1
  P  P18  1  0.974228  0.914728  0.719182  1
  P  P19  1  0.945074  0.597538  0.227791  1
  O  O20  1  0.001858  0.051907  0.776560  1
  O  O21  1  0.084242  0.363730  0.601873  1
  O  O22  1  0.199933  0.401678  0.909597  1
  O  O23  1  0.006953  0.464493  0.274502  1
  O  O24  1  0.123032  0.870134  0.656893  1
  O  O25  1  0.044373  0.153888  0.125871  1
  O  O26  1  0.085562  0.675872  0.178061  1
  O  O27  1  0.200968  0.082821  0.411993  1
  O  O28  1  0.322167  0.597913  0.577982  1
  O  O29  1  0.409672  0.177540  0.816606  1
  O  O30  1  0.455673  0.657863  0.876743  1
  O  O31  1  0.392754  0.359381  0.359017  1
  O  O32  1  0.475692  0.961794  0.736279  1
  O  O33  1  0.304070  0.905742  0.080074  1
  O  O34  1  0.395485  0.849755  0.383813  1
  O  O35  1  0.502233  0.442679  0.771184  1
  O  O36  1  0.492764  0.554347  0.230833  1
  O  O37  1  0.581091  0.141952  0.602356  1
  O  O38  1  0.701753  0.097302  0.911328  1
  O  O39  1  0.518872  0.039320  0.281401  1
  O  O40  1  0.634001  0.626970  0.669527  1
  O  O41  1  0.541089  0.338785  0.127499  1
  O  O42  1  0.598276  0.827098  0.195570  1
  O  O43  1  0.700035  0.406016  0.410324  1
  O  O44  1  0.819545  0.905164  0.575497  1
  O  O45  1  0.911413  0.319560  0.812509  1
  O  O46  1  0.956227  0.832394  0.875484  1
  O  O47  1  0.894884  0.137543  0.358373  1
  O  O48  1  0.963754  0.538680  0.737433  1
  O  O49  1  0.795306  0.604578  0.064927  1
  O  O50  1  0.878053  0.660222  0.364123  1
  O  O51  1  0.989140  0.939629  0.237372  1
