# generated using pymatgen
data_Li2VF4
_symmetry_space_group_name_H-M   'P 1'
_cell_length_a   4.17262903
_cell_length_b   5.38094206
_cell_length_c   5.90032151
_cell_angle_alpha   89.99965943
_cell_angle_beta   45.00584549
_cell_angle_gamma   67.18193287
_symmetry_Int_Tables_number   1
_chemical_formula_structural   Li2VF4
_chemical_formula_sum   'Li2 V1 F4'
_cell_volume   78.34274414
_cell_formula_units_Z   1
loop_
 _symmetry_equiv_pos_site_id
 _symmetry_equiv_pos_as_xyz
  1  'x, y, z'
loop_
 _atom_site_type_symbol
 _atom_site_label
 _atom_site_symmetry_multiplicity
 _atom_site_fract_x
 _atom_site_fract_y
 _atom_site_fract_z
 _atom_site_occupancy
  Li  Li0  1  0.004726  0.500003  0.747602  1
  Li  Li1  1  0.004731  0.499997  0.247599  1
  V  V2  1  0.000484  0.000000  0.999673  1
  F  F3  1  0.469960  0.530926  0.764987  1
  F  F4  1  0.531812  0.469074  0.234061  1
  F  F5  1  0.499511  0.000000  0.499720  1
  F  F6  1  0.501232  1.000000  0.998874  1
