# generated using pymatgen
data_V2OF7
_symmetry_space_group_name_H-M   'P 1'
_cell_length_a   5.57907114
_cell_length_b   5.66988039
_cell_length_c   11.44436429
_cell_angle_alpha   90.00000000
_cell_angle_beta   73.36043922
_cell_angle_gamma   90.00000000
_symmetry_Int_Tables_number   1
_chemical_formula_structural   V2OF7
_chemical_formula_sum   'V4 O2 F14'
_cell_volume   346.85637595
_cell_formula_units_Z   2
loop_
 _symmetry_equiv_pos_site_id
 _symmetry_equiv_pos_as_xyz
  1  'x, y, z'
loop_
 _atom_site_type_symbol
 _atom_site_label
 _atom_site_symmetry_multiplicity
 _atom_site_fract_x
 _atom_site_fract_y
 _atom_site_fract_z
 _atom_site_occupancy
  V  V0  1  0.058653  0.750530  0.808341  1
  V  V1  1  0.558653  0.749470  0.308341  1
  V  V2  1  0.462487  0.231573  0.687750  1
  V  V3  1  0.962487  0.268427  0.187750  1
  O  O4  1  0.291263  0.949163  0.751951  1
  O  O5  1  0.791263  0.550837  0.251951  1
  F  F6  1  0.085278  0.118269  0.293310  1
  F  F7  1  0.259862  0.382569  0.104499  1
  F  F8  1  0.280037  0.600773  0.381495  1
  F  F9  1  0.143636  0.423451  0.781646  1
  F  F10  1  0.459856  0.790982  0.175367  1
  F  F11  1  0.369266  0.308347  0.558224  1
  F  F12  1  0.118373  0.694228  0.950637  1
  F  F13  1  0.643636  0.076549  0.281646  1
  F  F14  1  0.869266  0.191653  0.058224  1
  F  F15  1  0.618373  0.805772  0.450637  1
  F  F16  1  0.585278  0.381731  0.793310  1
  F  F17  1  0.759862  0.117431  0.604498  1
  F  F18  1  0.780037  0.899227  0.881495  1
  F  F19  1  0.959856  0.709018  0.675367  1
