# generated using pymatgen
data_Li5CoO4
_symmetry_space_group_name_H-M   'P 1'
_cell_length_a   6.45574184
_cell_length_b   6.45575783
_cell_length_c   4.72322770
_cell_angle_alpha   90.00372258
_cell_angle_beta   89.99606069
_cell_angle_gamma   86.01383498
_symmetry_Int_Tables_number   1
_chemical_formula_structural   Li5CoO4
_chemical_formula_sum   'Li10 Co2 O8'
_cell_volume   196.37236737
_cell_formula_units_Z   2
loop_
 _symmetry_equiv_pos_site_id
 _symmetry_equiv_pos_as_xyz
  1  'x, y, z'
loop_
 _atom_site_type_symbol
 _atom_site_label
 _atom_site_symmetry_multiplicity
 _atom_site_fract_x
 _atom_site_fract_y
 _atom_site_fract_z
 _atom_site_occupancy
  Li  Li0  1  0.041172  0.950688  0.776241  1
  Li  Li1  1  0.215543  0.280189  0.691467  1
  Li  Li2  1  0.280157  0.215606  0.191459  1
  Li  Li3  1  0.450683  0.541173  0.723767  1
  Li  Li4  1  0.482172  0.982172  0.750000  1
  Li  Li5  1  0.541412  0.450436  0.223838  1
  Li  Li6  1  0.715602  0.780159  0.308533  1
  Li  Li7  1  0.780192  0.715534  0.808523  1
  Li  Li8  1  0.950435  0.041416  0.276170  1
  Li  Li9  1  0.982043  0.482042  0.249993  1
  Co  Co10  1  0.256618  0.756622  0.250005  1
  Co  Co11  1  0.756409  0.256404  0.750003  1
  O  O12  1  0.999673  0.238008  0.974221  1
  O  O13  1  0.237830  0.999582  0.474308  1
  O  O14  1  0.265931  0.486307  0.410410  1
  O  O15  1  0.486479  0.265741  0.910390  1
  O  O16  1  0.499574  0.737831  0.025689  1
  O  O17  1  0.765736  0.986475  0.589616  1
  O  O18  1  0.738018  0.499660  0.525771  1
  O  O19  1  0.986302  0.765932  0.089595  1
