# generated using pymatgen
data_LiMn3O6
_symmetry_space_group_name_H-M   'P 1'
_cell_length_a   5.13684667
_cell_length_b   5.03583003
_cell_length_c   10.51650574
_cell_angle_alpha   76.14125279
_cell_angle_beta   78.75222912
_cell_angle_gamma   60.64720807
_symmetry_Int_Tables_number   1
_chemical_formula_structural   LiMn3O6
_chemical_formula_sum   'Li2 Mn6 O12'
_cell_volume   229.24480261
_cell_formula_units_Z   2
loop_
 _symmetry_equiv_pos_site_id
 _symmetry_equiv_pos_as_xyz
  1  'x, y, z'
loop_
 _atom_site_type_symbol
 _atom_site_label
 _atom_site_symmetry_multiplicity
 _atom_site_fract_x
 _atom_site_fract_y
 _atom_site_fract_z
 _atom_site_occupancy
  Li  Li0  1  0.605142  0.900907  0.243531  1
  Li  Li1  1  0.104951  0.750114  0.743622  1
  Mn  Mn2  1  0.985920  0.678359  0.007279  1
  Mn  Mn3  1  0.485945  0.828504  0.507224  1
  Mn  Mn4  1  0.659038  0.342522  0.997324  1
  Mn  Mn5  1  0.822869  0.168918  0.493118  1
  Mn  Mn6  1  0.159061  0.501182  0.497260  1
  Mn  Mn7  1  0.322864  0.015107  0.993199  1
  O  O8  1  0.923554  0.977811  0.107480  1
  O  O9  1  0.816245  0.792615  0.594957  1
  O  O10  1  0.832545  0.553306  0.403559  1
  O  O11  1  0.332521  0.710669  0.903649  1
  O  O12  1  0.633110  0.646847  0.095452  1
  O  O13  1  0.727497  0.040479  0.895379  1
  O  O14  1  0.423622  0.491124  0.607406  1
  O  O15  1  0.227517  0.836689  0.395374  1
  O  O16  1  0.503579  0.197485  0.404157  1
  O  O17  1  0.003552  0.394899  0.904180  1
  O  O18  1  0.316204  0.296103  0.095039  1
  O  O19  1  0.133044  0.124707  0.595333  1
