# generated using pymatgen
data_MnCoO4
_symmetry_space_group_name_H-M   'P 1'
_cell_length_a   5.73445818
_cell_length_b   5.73445806
_cell_length_c   5.73445818
_cell_angle_alpha   89.42852346
_cell_angle_beta   118.42910883
_cell_angle_gamma   59.07237001
_symmetry_Int_Tables_number   1
_chemical_formula_structural   MnCoO4
_chemical_formula_sum   'Mn2 Co2 O8'
_cell_volume   133.90287746
_cell_formula_units_Z   2
loop_
 _symmetry_equiv_pos_site_id
 _symmetry_equiv_pos_as_xyz
  1  'x, y, z'
loop_
 _atom_site_type_symbol
 _atom_site_label
 _atom_site_symmetry_multiplicity
 _atom_site_fract_x
 _atom_site_fract_y
 _atom_site_fract_z
 _atom_site_occupancy
  Mn  Mn0  1  0.500000  0.500000  0.000000  1
  Mn  Mn1  1  0.000000  0.500000  0.500000  1
  Co  Co2  1  0.500000  0.000000  0.000000  1
  Co  Co3  1  0.000000  0.500000  0.000000  1
  O  O4  1  0.534823  0.739226  0.795597  1
  O  O5  1  0.965177  0.739226  0.225951  1
  O  O6  1  0.974243  0.291943  0.233812  1
  O  O7  1  0.525757  0.740431  0.233812  1
  O  O8  1  0.474243  0.259569  0.766188  1
  O  O9  1  0.025757  0.708057  0.766188  1
  O  O10  1  0.034823  0.260774  0.774049  1
  O  O11  1  0.465177  0.260774  0.204403  1
