# generated using pymatgen
data_Li5Ni2(PO4)3
_symmetry_space_group_name_H-M   'P 1'
_cell_length_a   8.62670312
_cell_length_b   8.73981529
_cell_length_c   12.28751511
_cell_angle_alpha   90.00042022
_cell_angle_beta   89.20419844
_cell_angle_gamma   90.00335133
_symmetry_Int_Tables_number   1
_chemical_formula_structural   Li5Ni2(PO4)3
_chemical_formula_sum   'Li20 Ni8 P12 O48'
_cell_volume   926.33757064
_cell_formula_units_Z   4
loop_
 _symmetry_equiv_pos_site_id
 _symmetry_equiv_pos_as_xyz
  1  'x, y, z'
loop_
 _atom_site_type_symbol
 _atom_site_label
 _atom_site_symmetry_multiplicity
 _atom_site_fract_x
 _atom_site_fract_y
 _atom_site_fract_z
 _atom_site_occupancy
  Li  Li0  1  0.930020  0.519955  0.350599  1
  Li  Li1  1  0.929449  0.094187  0.695624  1
  Li  Li2  1  0.854686  0.735924  0.748199  1
  Li  Li3  1  0.904291  0.658796  0.974576  1
  Li  Li4  1  0.794445  0.769456  0.183817  1
  Li  Li5  1  0.705556  0.269468  0.316181  1
  Li  Li6  1  0.595707  0.158807  0.525431  1
  Li  Li7  1  0.645322  0.235895  0.751803  1
  Li  Li8  1  0.570543  0.594185  0.804363  1
  Li  Li9  1  0.569988  0.019961  0.149410  1
  Li  Li10  1  0.437271  0.984862  0.844783  1
  Li  Li11  1  0.426432  0.405871  0.195354  1
  Li  Li12  1  0.372425  0.769290  0.255948  1
  Li  Li13  1  0.344887  0.682701  0.492304  1
  Li  Li14  1  0.299226  0.737414  0.696058  1
  Li  Li15  1  0.200762  0.237404  0.803927  1
  Li  Li16  1  0.155116  0.182711  0.007683  1
  Li  Li17  1  0.127577  0.269291  0.244067  1
  Li  Li18  1  0.073571  0.905869  0.304664  1
  Li  Li19  1  0.062759  0.484862  0.655216  1
  Ni  Ni20  1  0.750087  0.534140  0.604261  1
  Ni  Ni21  1  0.749928  0.034148  0.895736  1
  Ni  Ni22  1  0.752548  0.451537  0.111467  1
  Ni  Ni23  1  0.747458  0.951525  0.388552  1
  Ni  Ni24  1  0.252502  0.042717  0.603750  1
  Ni  Ni25  1  0.247483  0.542712  0.896224  1
  Ni  Ni26  1  0.254711  0.947184  0.110634  1
  Ni  Ni27  1  0.245283  0.447176  0.389378  1
  P  P28  1  0.951454  0.245712  0.493371  1
  P  P29  1  0.893884  0.394123  0.849645  1
  P  P30  1  0.891953  0.100565  0.153677  1
  P  P31  1  0.606090  0.894134  0.650408  1
  P  P32  1  0.608028  0.600537  0.346280  1
  P  P33  1  0.548569  0.745714  0.006630  1
  P  P34  1  0.453912  0.248962  0.991807  1
  P  P35  1  0.397208  0.398443  0.647041  1
  P  P36  1  0.394796  0.107192  0.347965  1
  P  P37  1  0.102784  0.898457  0.852951  1
  P  P38  1  0.105190  0.607180  0.152039  1
  P  P39  1  0.046126  0.748950  0.508200  1
  O  O40  1  0.954168  0.862174  0.440096  1
  O  O41  1  0.925677  0.866140  0.872143  1
  O  O42  1  0.954854  0.679345  0.606970  1
  O  O43  1  0.932594  0.587731  0.190716  1
  O  O44  1  0.908774  0.371726  0.577225  1
  O  O45  1  0.851330  0.227097  0.817934  1
  O  O46  1  0.875110  0.421797  0.971367  1
  O  O47  1  0.867382  0.975247  0.242435  1
  O  O48  1  0.841171  0.260706  0.193159  1
  O  O49  1  0.798367  0.176345  0.447993  1
  O  O50  1  0.796982  0.050743  0.055350  1
  O  O51  1  0.791944  0.511427  0.785545  1
  O  O52  1  0.708050  0.011440  0.714493  1
  O  O53  1  0.702984  0.550715  0.444627  1
  O  O54  1  0.701636  0.676320  0.051999  1
  O  O55  1  0.658816  0.760693  0.306804  1
  O  O56  1  0.624874  0.921825  0.528656  1
  O  O57  1  0.632604  0.475245  0.257532  1
  O  O58  1  0.648655  0.727128  0.682114  1
  O  O59  1  0.591279  0.871739  0.922787  1
  O  O60  1  0.545185  0.179326  0.893047  1
  O  O61  1  0.574312  0.366103  0.627871  1
  O  O62  1  0.567382  0.087751  0.309270  1
  O  O63  1  0.545852  0.362190  0.059893  1
  O  O64  1  0.456087  0.626573  0.943286  1
  O  O65  1  0.433756  0.919939  0.687879  1
  O  O66  1  0.427667  0.610430  0.363072  1
  O  O67  1  0.458237  0.816531  0.105896  1
  O  O68  1  0.399253  0.122129  0.072443  1
  O  O69  1  0.340669  0.266947  0.306843  1
  O  O70  1  0.376326  0.518940  0.739923  1
  O  O71  1  0.384550  0.105584  0.472463  1
  O  O72  1  0.321650  0.245097  0.678978  1
  O  O73  1  0.301568  0.319628  0.943947  1
  O  O74  1  0.316479  0.470724  0.547812  1
  O  O75  1  0.296976  0.979942  0.293366  1
  O  O76  1  0.203000  0.479953  0.206654  1
  O  O77  1  0.183543  0.970741  0.952173  1
  O  O78  1  0.198466  0.819636  0.556044  1
  O  O79  1  0.178313  0.745096  0.821019  1
  O  O80  1  0.123646  0.018931  0.760054  1
  O  O81  1  0.115455  0.605564  0.027542  1
  O  O82  1  0.159317  0.766945  0.193170  1
  O  O83  1  0.100761  0.622135  0.427558  1
  O  O84  1  0.066231  0.419912  0.812143  1
  O  O85  1  0.041771  0.316535  0.394099  1
  O  O86  1  0.072327  0.110460  0.136897  1
  O  O87  1  0.043919  0.126553  0.556690  1
