# generated using pymatgen
data_Ti5Mn3O16
_symmetry_space_group_name_H-M   'P 1'
_cell_length_a   5.85943766
_cell_length_b   5.87053095
_cell_length_c   9.06020111
_cell_angle_alpha   89.99922096
_cell_angle_beta   89.40079004
_cell_angle_gamma   120.06307065
_symmetry_Int_Tables_number   1
_chemical_formula_structural   Ti5Mn3O16
_chemical_formula_sum   'Ti5 Mn3 O16'
_cell_volume   269.70790573
_cell_formula_units_Z   1
loop_
 _symmetry_equiv_pos_site_id
 _symmetry_equiv_pos_as_xyz
  1  'x, y, z'
loop_
 _atom_site_type_symbol
 _atom_site_label
 _atom_site_symmetry_multiplicity
 _atom_site_fract_x
 _atom_site_fract_y
 _atom_site_fract_z
 _atom_site_occupancy
  Ti  Ti0  1  0.326502  0.163249  0.714432  1
  Ti  Ti1  1  0.161127  0.827927  0.213809  1
  Ti  Ti2  1  0.339507  0.669759  0.495033  1
  Ti  Ti3  1  0.161126  0.333213  0.213809  1
  Ti  Ti4  1  0.666581  0.333305  0.992618  1
  Mn  Mn5  1  0.657667  0.828842  0.211362  1
  Mn  Mn6  1  0.828066  0.660030  0.711136  1
  Mn  Mn7  1  0.828065  0.168061  0.711141  1
  O  O8  1  0.170855  0.831949  0.600522  1
  O  O9  1  0.043575  0.521791  0.339083  1
  O  O10  1  0.339200  0.669612  0.100144  1
  O  O11  1  0.992693  0.996352  0.314830  1
  O  O12  1  0.990933  0.995470  0.814426  1
  O  O13  1  0.170858  0.338929  0.600529  1
  O  O14  1  0.483422  0.955749  0.336209  1
  O  O15  1  0.483420  0.527689  0.336216  1
  O  O16  1  0.342404  0.171212  0.099672  1
  O  O17  1  0.666031  0.833029  0.602749  1
  O  O18  1  0.526652  0.482135  0.836523  1
  O  O19  1  0.526652  0.044525  0.836524  1
  O  O20  1  0.675049  0.337531  0.602103  1
  O  O21  1  0.831623  0.661996  0.100788  1
  O  O22  1  0.956361  0.478191  0.831278  1
  O  O23  1  0.831632  0.169653  0.100787  1
