# generated using pymatgen
data_Cr3(CuO6)2
_symmetry_space_group_name_H-M   'P 1'
_cell_length_a   8.62978104
_cell_length_b   12.19032726
_cell_length_c   9.01237753
_cell_angle_alpha   90.00000000
_cell_angle_beta   90.00000000
_cell_angle_gamma   90.72282863
_symmetry_Int_Tables_number   1
_chemical_formula_structural   Cr3(CuO6)2
_chemical_formula_sum   'Cr12 Cu8 O48'
_cell_volume   948.02536296
_cell_formula_units_Z   4
loop_
 _symmetry_equiv_pos_site_id
 _symmetry_equiv_pos_as_xyz
  1  'x, y, z'
loop_
 _atom_site_type_symbol
 _atom_site_label
 _atom_site_symmetry_multiplicity
 _atom_site_fract_x
 _atom_site_fract_y
 _atom_site_fract_z
 _atom_site_occupancy
  Cr  Cr0  1  0.038522  0.491772  0.248106  1
  Cr  Cr1  1  0.108479  0.850529  0.379080  1
  Cr  Cr2  1  0.114169  0.143302  0.113121  1
  Cr  Cr3  1  0.391521  0.649471  0.879080  1
  Cr  Cr4  1  0.385831  0.356698  0.613121  1
  Cr  Cr5  1  0.461478  0.008228  0.748106  1
  Cr  Cr6  1  0.538522  0.991772  0.251894  1
  Cr  Cr7  1  0.614169  0.643302  0.386879  1
  Cr  Cr8  1  0.608479  0.350529  0.120920  1
  Cr  Cr9  1  0.885831  0.856698  0.886879  1
  Cr  Cr10  1  0.891521  0.149471  0.620920  1
  Cr  Cr11  1  0.961478  0.508228  0.751894  1
  Cu  Cu12  1  0.252308  0.886616  0.028593  1
  Cu  Cu13  1  0.247692  0.613384  0.528593  1
  Cu  Cu14  1  0.253103  0.382155  0.969800  1
  Cu  Cu15  1  0.246897  0.117845  0.469800  1
  Cu  Cu16  1  0.753103  0.882155  0.530200  1
  Cu  Cu17  1  0.746897  0.617845  0.030200  1
  Cu  Cu18  1  0.752308  0.386616  0.471407  1
  Cu  Cu19  1  0.747692  0.113384  0.971407  1
  O  O20  1  0.065659  0.445802  0.880161  1
  O  O21  1  0.068204  0.902964  0.886051  1
  O  O22  1  0.066095  0.608345  0.669210  1
  O  O23  1  0.071058  0.188843  0.572734  1
  O  O24  1  0.097821  0.588168  0.367076  1
  O  O25  1  0.121144  0.836814  0.194150  1
  O  O26  1  0.135820  0.981623  0.422321  1
  O  O27  1  0.127246  0.248225  0.995352  1
  O  O28  1  0.166050  0.184122  0.282678  1
  O  O29  1  0.192830  0.432934  0.171296  1
  O  O30  1  0.237411  0.773416  0.467788  1
  O  O31  1  0.262590  0.726584  0.967788  1
  O  O32  1  0.237679  0.045689  0.059206  1
  O  O33  1  0.262321  0.454311  0.559206  1
  O  O34  1  0.307170  0.067066  0.671296  1
  O  O35  1  0.333950  0.315878  0.782678  1
  O  O36  1  0.364180  0.518377  0.922321  1
  O  O37  1  0.372754  0.251775  0.495352  1
  O  O38  1  0.378856  0.663186  0.694150  1
  O  O39  1  0.402179  0.911832  0.867076  1
  O  O40  1  0.433905  0.891655  0.169210  1
  O  O41  1  0.431796  0.597036  0.386051  1
  O  O42  1  0.428942  0.311157  0.072734  1
  O  O43  1  0.434341  0.054198  0.380161  1
  O  O44  1  0.565659  0.945802  0.619839  1
  O  O45  1  0.571058  0.688843  0.927266  1
  O  O46  1  0.568204  0.402964  0.613949  1
  O  O47  1  0.566094  0.108345  0.830790  1
  O  O48  1  0.597821  0.088168  0.132924  1
  O  O49  1  0.621144  0.336814  0.305850  1
  O  O50  1  0.627246  0.748225  0.504648  1
  O  O51  1  0.635820  0.481623  0.077679  1
  O  O52  1  0.666050  0.684122  0.217322  1
  O  O53  1  0.692830  0.932934  0.328704  1
  O  O54  1  0.737679  0.545689  0.440794  1
  O  O55  1  0.762321  0.954311  0.940794  1
  O  O56  1  0.737410  0.273416  0.032212  1
  O  O57  1  0.762590  0.226584  0.532212  1
  O  O58  1  0.807170  0.567066  0.828704  1
  O  O59  1  0.833950  0.815878  0.717322  1
  O  O60  1  0.872754  0.751775  0.004648  1
  O  O61  1  0.864180  0.018377  0.577679  1
  O  O62  1  0.878856  0.163186  0.805850  1
  O  O63  1  0.902179  0.411832  0.632924  1
  O  O64  1  0.928942  0.811157  0.427266  1
  O  O65  1  0.933906  0.391655  0.330790  1
  O  O66  1  0.931796  0.097036  0.113949  1
  O  O67  1  0.934341  0.554198  0.119839  1
