# generated using pymatgen
data_Mn3VO8
_symmetry_space_group_name_H-M   'P 1'
_cell_length_a   10.19678711
_cell_length_b   10.18788572
_cell_length_c   14.41436866
_cell_angle_alpha   19.55434635
_cell_angle_beta   19.37457795
_cell_angle_gamma   33.57342655
_symmetry_Int_Tables_number   1
_chemical_formula_structural   Mn3VO8
_chemical_formula_sum   'Mn3 V1 O8'
_cell_volume   143.75953215
_cell_formula_units_Z   1
loop_
 _symmetry_equiv_pos_site_id
 _symmetry_equiv_pos_as_xyz
  1  'x, y, z'
loop_
 _atom_site_type_symbol
 _atom_site_label
 _atom_site_symmetry_multiplicity
 _atom_site_fract_x
 _atom_site_fract_y
 _atom_site_fract_z
 _atom_site_occupancy
  Mn  Mn0  1  0.000000  0.500001  0.000000  1
  Mn  Mn1  1  0.500001  0.000000  0.000000  1
  Mn  Mn2  1  0.499999  0.499999  0.000001  1
  V  V3  1  0.000000  0.999999  0.000001  1
  O  O4  1  0.000046  0.001915  0.265695  1
  O  O5  1  0.999157  0.493208  0.272545  1
  O  O6  1  0.499182  0.001924  0.265416  1
  O  O7  1  0.999955  0.998086  0.734304  1
  O  O8  1  0.500791  0.503724  0.263803  1
  O  O9  1  0.000843  0.506792  0.727455  1
  O  O10  1  0.500818  0.998075  0.734584  1
  O  O11  1  0.499209  0.496276  0.736196  1
