# generated using pymatgen
data_Fe(CoO3)2
_symmetry_space_group_name_H-M   'P 1'
_cell_length_a   6.54196299
_cell_length_b   2.88719676
_cell_length_c   5.83264769
_cell_angle_alpha   89.99999818
_cell_angle_beta   103.58373412
_cell_angle_gamma   77.25176079
_symmetry_Int_Tables_number   1
_chemical_formula_structural   Fe(CoO3)2
_chemical_formula_sum   'Fe1 Co2 O6'
_cell_volume   104.28913108
_cell_formula_units_Z   1
loop_
 _symmetry_equiv_pos_site_id
 _symmetry_equiv_pos_as_xyz
  1  'x, y, z'
loop_
 _atom_site_type_symbol
 _atom_site_label
 _atom_site_symmetry_multiplicity
 _atom_site_fract_x
 _atom_site_fract_y
 _atom_site_fract_z
 _atom_site_occupancy
  Fe  Fe0  1  0.333333  0.333333  0.333333  1
  Co  Co1  1  0.994837  0.002582  0.995356  1
  Co  Co2  1  0.671830  0.664085  0.671311  1
  O  O3  1  0.011185  0.494408  0.210050  1
  O  O4  1  0.365183  0.817408  0.565242  1
  O  O5  1  0.692071  0.153964  0.888435  1
  O  O6  1  0.301484  0.849258  0.101425  1
  O  O7  1  0.655481  0.172259  0.456617  1
  O  O8  1  0.974596  0.512702  0.778232  1
