# generated using pymatgen
data_Co2NiO6
_symmetry_space_group_name_H-M   'P 1'
_cell_length_a   6.36542365
_cell_length_b   2.80661044
_cell_length_c   5.63997598
_cell_angle_alpha   89.66408021
_cell_angle_beta   102.85550560
_cell_angle_gamma   77.57850192
_symmetry_Int_Tables_number   1
_chemical_formula_structural   Co2NiO6
_chemical_formula_sum   'Co2 Ni1 O6'
_cell_volume   95.78171894
_cell_formula_units_Z   1
loop_
 _symmetry_equiv_pos_site_id
 _symmetry_equiv_pos_as_xyz
  1  'x, y, z'
loop_
 _atom_site_type_symbol
 _atom_site_label
 _atom_site_symmetry_multiplicity
 _atom_site_fract_x
 _atom_site_fract_y
 _atom_site_fract_z
 _atom_site_occupancy
  Co  Co0  1  0.999686  0.996510  0.997558  1
  Co  Co1  1  0.662200  0.666320  0.665735  1
  Ni  Ni2  1  0.331685  0.331738  0.330495  1
  O  O3  1  0.023360  0.482169  0.224473  1
  O  O4  1  0.350228  0.820447  0.555726  1
  O  O5  1  0.686142  0.151400  0.893355  1
  O  O6  1  0.312183  0.843665  0.104899  1
  O  O7  1  0.640047  0.180367  0.438715  1
  O  O8  1  0.975185  0.511074  0.770255  1
