# generated using pymatgen
data_Li9Co13O28
_symmetry_space_group_name_H-M   'P 1'
_cell_length_a   8.09455051
_cell_length_b   8.53722894
_cell_length_c   7.44119238
_cell_angle_alpha   104.39464447
_cell_angle_beta   105.16888864
_cell_angle_gamma   101.57677409
_symmetry_Int_Tables_number   1
_chemical_formula_structural   Li9Co13O28
_chemical_formula_sum   'Li9 Co13 O28'
_cell_volume   460.89731201
_cell_formula_units_Z   1
loop_
 _symmetry_equiv_pos_site_id
 _symmetry_equiv_pos_as_xyz
  1  'x, y, z'
loop_
 _atom_site_type_symbol
 _atom_site_label
 _atom_site_symmetry_multiplicity
 _atom_site_fract_x
 _atom_site_fract_y
 _atom_site_fract_z
 _atom_site_occupancy
  Li  Li0  1  0.273399  0.208092  0.925218  1
  Li  Li1  1  0.202466  0.293403  0.584661  1
  Li  Li2  1  0.135626  0.351500  0.207351  1
  Li  Li3  1  0.354459  0.131615  0.288076  1
  Li  Li4  1  0.649864  0.864033  0.701352  1
  Li  Li5  1  0.499309  0.996314  0.000142  1
  Li  Li6  1  0.871046  0.642760  0.769622  1
  Li  Li7  1  0.719846  0.792865  0.086764  1
  Li  Li8  1  0.933009  0.570943  0.161445  1
  Co  Co9  1  0.139730  0.860083  0.716986  1
  Co  Co10  1  0.073885  0.932921  0.355106  1
  Co  Co11  1  0.213606  0.790285  0.070933  1
  Co  Co12  1  0.350182  0.639100  0.782660  1
  Co  Co13  1  0.291978  0.719927  0.432153  1
  Co  Co14  1  0.429099  0.572415  0.143605  1
  Co  Co15  1  0.500515  0.499909  0.499595  1
  Co  Co16  1  0.568771  0.426086  0.855601  1
  Co  Co17  1  0.711377  0.281273  0.569721  1
  Co  Co18  1  0.649514  0.362044  0.217595  1
  Co  Co19  1  0.790420  0.211069  0.927201  1
  Co  Co20  1  0.923975  0.065177  0.641521  1
  Co  Co21  1  0.859641  0.141051  0.280654  1
  O  O22  1  0.002644  0.202399  0.904122  1
  O  O23  1  0.124985  0.666665  0.798735  1
  O  O24  1  0.067995  0.743419  0.442456  1
  O  O25  1  0.247559  0.975217  0.989023  1
  O  O26  1  0.090283  0.135696  0.300958  1
  O  O27  1  0.154311  0.057010  0.631367  1
  O  O28  1  0.372230  0.834855  0.705520  1
  O  O29  1  0.301103  0.911898  0.344457  1
  O  O30  1  0.271643  0.520308  0.505366  1
  O  O31  1  0.344126  0.440739  0.867166  1
  O  O32  1  0.202762  0.595922  0.162178  1
  O  O33  1  0.437671  0.763759  0.053235  1
  O  O34  1  0.511727  0.694837  0.418926  1
  O  O35  1  0.586992  0.623516  0.777239  1
  O  O36  1  0.413177  0.372827  0.223870  1
  O  O37  1  0.484102  0.303816  0.581120  1
  O  O38  1  0.560617  0.238050  0.945653  1
  O  O39  1  0.793322  0.407287  0.842703  1
  O  O40  1  0.657553  0.553197  0.122538  1
  O  O41  1  0.727790  0.474578  0.494461  1
  O  O42  1  0.699478  0.088602  0.655595  1
  O  O43  1  0.631227  0.166316  0.296045  1
  O  O44  1  0.845269  0.948174  0.362417  1
  O  O45  1  0.917945  0.870044  0.706616  1
  O  O46  1  0.753044  0.025821  0.017226  1
  O  O47  1  0.932867  0.256988  0.552754  1
  O  O48  1  0.878437  0.340202  0.198662  1
  O  O49  1  0.991863  0.791955  0.098699  1
