# generated using pymatgen
data_LiSbPO5
_symmetry_space_group_name_H-M   'P 1'
_cell_length_a   8.36766030
_cell_length_b   10.55927324
_cell_length_c   11.05648389
_cell_angle_alpha   84.16191096
_cell_angle_beta   68.54338802
_cell_angle_gamma   65.29421511
_symmetry_Int_Tables_number   1
_chemical_formula_structural   LiSbPO5
_chemical_formula_sum   'Li8 Sb8 P8 O40'
_cell_volume   824.46889300
_cell_formula_units_Z   8
loop_
 _symmetry_equiv_pos_site_id
 _symmetry_equiv_pos_as_xyz
  1  'x, y, z'
loop_
 _atom_site_type_symbol
 _atom_site_label
 _atom_site_symmetry_multiplicity
 _atom_site_fract_x
 _atom_site_fract_y
 _atom_site_fract_z
 _atom_site_occupancy
  Li  Li0  1  0.092369  0.921902  0.260714  1
  Li  Li1  1  0.414955  0.819843  0.982700  1
  Li  Li2  1  0.497421  0.273766  0.352357  1
  Li  Li3  1  0.121483  0.420416  0.730909  1
  Li  Li4  1  -0.000039  0.528158  0.090434  1
  Li  Li5  1  0.613638  0.666371  0.490970  1
  Li  Li6  1  0.993889  0.022096  0.601127  1
  Li  Li7  1  0.622408  0.170679  0.978300  1
  Sb  Sb8  1  0.002761  0.997020  0.989948  1
  Sb  Sb9  1  0.008851  0.500274  0.490727  1
  Sb  Sb10  1  0.509502  0.746075  0.247824  1
  Sb  Sb11  1  0.250146  0.124522  0.372553  1
  Sb  Sb12  1  0.753095  0.373862  0.120382  1
  Sb  Sb13  1  0.261693  0.624371  0.867439  1
  Sb  Sb14  1  0.743897  0.872846  0.626957  1
  Sb  Sb15  1  0.507984  0.246893  0.740311  1
  P  P16  1  0.221833  0.175211  0.071352  1
  P  P17  1  0.282727  0.573074  0.180258  1
  P  P18  1  0.212959  0.685600  0.575131  1
  P  P19  1  0.715111  0.931674  0.327457  1
  P  P20  1  0.275346  0.071976  0.680508  1
  P  P21  1  0.780285  0.319789  0.430853  1
  P  P22  1  0.719261  0.427895  0.821518  1
  P  P23  1  0.784036  0.816253  0.928661  1
  O  O24  1  0.047934  0.305391  0.054603  1
  O  O25  1  0.247973  0.542247  0.057310  1
  O  O26  1  0.190578  0.039093  0.078684  1
  O  O27  1  0.107531  0.589172  0.299884  1
  O  O28  1  0.318157  0.708650  0.162550  1
  O  O29  1  0.237588  0.208765  0.200406  1
  O  O30  1  0.267508  0.949636  0.321229  1
  O  O31  1  0.603976  0.822095  0.042321  1
  O  O32  1  0.042091  0.816987  0.557663  1
  O  O33  1  0.456687  0.446099  0.199427  1
  O  O34  1  0.240629  0.295976  0.423641  1
  O  O35  1  0.170158  0.555343  0.589769  1
  O  O36  1  0.394411  0.669190  0.459522  1
  O  O37  1  0.761402  0.201845  0.072712  1
  O  O38  1  0.747600  0.542452  0.175532  1
  O  O39  1  0.542421  0.064993  0.313165  1
  O  O40  1  0.667271  0.802853  0.342897  1
  O  O41  1  0.235485  0.044532  0.557580  1
  O  O42  1  0.893076  0.916008  0.211577  1
  O  O43  1  0.240292  0.718320  0.699770  1
  O  O44  1  0.745341  0.291601  0.306524  1
  O  O45  1  0.101044  0.078146  0.797786  1
  O  O46  1  0.746803  0.961200  0.451026  1
  O  O47  1  0.303943  0.208209  0.669923  1
  O  O48  1  0.453406  0.944599  0.690690  1
  O  O49  1  0.264500  0.453688  0.821294  1
  O  O50  1  0.238881  0.796411  0.928578  1
  O  O51  1  0.604738  0.327570  0.547206  1
  O  O52  1  0.810176  0.455394  0.421553  1
  O  O53  1  0.769516  0.699847  0.566769  1
  O  O54  1  0.549468  0.556096  0.799625  1
  O  O55  1  0.956011  0.190179  0.445320  1
  O  O56  1  0.401594  0.165619  0.959811  1
  O  O57  1  0.737549  0.043321  0.680315  1
  O  O58  1  0.758021  0.785631  0.802613  1
  O  O59  1  0.678443  0.295836  0.834980  1
  O  O60  1  0.901334  0.412692  0.709514  1
  O  O61  1  0.803454  0.955974  0.925154  1
  O  O62  1  0.735301  0.463527  0.950335  1
  O  O63  1  0.958921  0.693223  0.948738  1
