# generated using pymatgen
data_LiMn4O8
_symmetry_space_group_name_H-M   'P 1'
_cell_length_a   2.98610199
_cell_length_b   6.98995359
_cell_length_c   7.13959548
_cell_angle_alpha   91.25959182
_cell_angle_beta   77.95626110
_cell_angle_gamma   102.29485109
_symmetry_Int_Tables_number   1
_chemical_formula_structural   LiMn4O8
_chemical_formula_sum   'Li1 Mn4 O8'
_cell_volume   142.36058507
_cell_formula_units_Z   1
loop_
 _symmetry_equiv_pos_site_id
 _symmetry_equiv_pos_as_xyz
  1  'x, y, z'
loop_
 _atom_site_type_symbol
 _atom_site_label
 _atom_site_symmetry_multiplicity
 _atom_site_fract_x
 _atom_site_fract_y
 _atom_site_fract_z
 _atom_site_occupancy
  Li  Li0  1  0.520478  0.999320  0.000060  1
  Mn  Mn1  1  0.655839  0.482577  0.181531  1
  Mn  Mn2  1  0.832657  0.181922  0.524033  1
  Mn  Mn3  1  0.174433  0.816714  0.476286  1
  Mn  Mn4  1  0.353044  0.515158  0.818755  1
  O  O5  1  0.150844  0.343403  0.052272  1
  O  O6  1  0.458464  0.299988  0.390971  1
  O  O7  1  0.195275  0.036953  0.653697  1
  O  O8  1  0.182361  0.631287  0.276367  1
  O  O9  1  0.826652  0.367318  0.723573  1
  O  O10  1  0.811014  0.962207  0.346592  1
  O  O11  1  0.549113  0.699720  0.610721  1
  O  O12  1  0.857305  0.653781  0.948229  1
