# generated using pymatgen
data_Ta2CuO6
_symmetry_space_group_name_H-M   'P 1'
_cell_length_a   5.64067744
_cell_length_b   5.55157614
_cell_length_c   5.56039813
_cell_angle_alpha   55.46517977
_cell_angle_beta   56.14461717
_cell_angle_gamma   56.14580688
_symmetry_Int_Tables_number   1
_chemical_formula_structural   Ta2CuO6
_chemical_formula_sum   'Ta2 Cu1 O6'
_cell_volume   111.46473073
_cell_formula_units_Z   1
loop_
 _symmetry_equiv_pos_site_id
 _symmetry_equiv_pos_as_xyz
  1  'x, y, z'
loop_
 _atom_site_type_symbol
 _atom_site_label
 _atom_site_symmetry_multiplicity
 _atom_site_fract_x
 _atom_site_fract_y
 _atom_site_fract_z
 _atom_site_occupancy
  Ta  Ta0  1  0.998269  0.995738  0.994265  1
  Ta  Ta1  1  0.502974  0.505428  0.503645  1
  Cu  Cu2  1  0.751806  0.766127  0.732091  1
  O  O3  1  0.128142  0.737449  0.380260  1
  O  O4  1  0.373592  0.117444  0.764223  1
  O  O5  1  0.748552  0.385863  0.115075  1
  O  O6  1  0.247901  0.656614  0.843498  1
  O  O7  1  0.658105  0.842953  0.259185  1
  O  O8  1  0.841460  0.243183  0.657758  1
