# generated using pymatgen
data_LiNb7V12O48
_symmetry_space_group_name_H-M   'P 1'
_cell_length_a   5.19911814
_cell_length_b   10.63797313
_cell_length_c   17.88376696
_cell_angle_alpha   89.91483812
_cell_angle_beta   88.32268410
_cell_angle_gamma   89.79950727
_symmetry_Int_Tables_number   1
_chemical_formula_structural   LiNb7V12O48
_chemical_formula_sum   'Li1 Nb7 V12 O48'
_cell_volume   988.68598599
_cell_formula_units_Z   1
loop_
 _symmetry_equiv_pos_site_id
 _symmetry_equiv_pos_as_xyz
  1  'x, y, z'
loop_
 _atom_site_type_symbol
 _atom_site_label
 _atom_site_symmetry_multiplicity
 _atom_site_fract_x
 _atom_site_fract_y
 _atom_site_fract_z
 _atom_site_occupancy
  Li  Li0  1  0.251823  0.270110  0.796950  1
  Nb  Nb1  1  0.233266  0.753697  0.295592  1
  Nb  Nb2  1  0.224166  0.069042  0.973693  1
  Nb  Nb3  1  0.421791  0.745866  0.749744  1
  Nb  Nb4  1  0.584044  0.246397  0.247395  1
  Nb  Nb5  1  0.763022  0.064302  0.532321  1
  Nb  Nb6  1  0.755496  0.437891  0.531272  1
  Nb  Nb7  1  0.774795  0.568946  0.019204  1
  V  V8  1  0.240020  0.749833  0.943541  1
  V  V9  1  0.222794  0.035122  0.663448  1
  V  V10  1  0.216460  0.465571  0.661500  1
  V  V11  1  0.281991  0.522730  0.153986  1
  V  V12  1  0.291364  0.972899  0.157492  1
  V  V13  1  0.290246  0.250535  0.443867  1
  V  V14  1  0.712784  0.750825  0.556970  1
  V  V15  1  0.723761  0.467036  0.836644  1
  V  V16  1  0.716358  0.023363  0.843471  1
  V  V17  1  0.760294  0.532578  0.341168  1
  V  V18  1  0.765052  0.968403  0.343696  1
  V  V19  1  0.759418  0.247183  0.056171  1
  O  O20  1  0.040795  0.226966  0.997497  1
  O  O21  1  0.036011  0.626467  0.356179  1
  O  O22  1  0.040402  0.876440  0.362126  1
  O  O23  1  0.135759  0.629219  0.214561  1
  O  O24  1  0.112404  0.866664  0.218339  1
  O  O25  1  0.090225  0.126934  0.466210  1
  O  O26  1  0.089468  0.373735  0.465569  1
  O  O27  1  0.118954  0.008669  0.076010  1
  O  O28  1  0.057556  0.501674  0.083890  1
  O  O29  1  0.189230  0.745530  0.848226  1
  O  O30  1  0.188851  0.615819  0.702251  1
  O  O31  1  0.189218  0.887256  0.704084  1
  O  O32  1  0.373275  0.116593  0.207604  1
  O  O33  1  0.370167  0.382767  0.200899  1
  O  O34  1  0.385472  0.250867  0.347962  1
  O  O35  1  0.436670  0.480332  0.580204  1
  O  O36  1  0.446856  0.023917  0.583444  1
  O  O37  1  0.381984  0.890215  0.964991  1
  O  O38  1  0.457819  0.635004  0.968647  1
  O  O39  1  0.367080  0.126272  0.721897  1
  O  O40  1  0.393745  0.375343  0.711833  1
  O  O41  1  0.438517  0.106506  0.884036  1
  O  O42  1  0.478808  0.375437  0.860407  1
  O  O43  1  0.468535  0.750619  0.503042  1
  O  O44  1  0.580842  0.250416  0.503293  1
  O  O45  1  0.549417  0.597464  0.115571  1
  O  O46  1  0.550861  0.899481  0.131981  1
  O  O47  1  0.534661  0.630034  0.300651  1
  O  O48  1  0.535095  0.871525  0.304248  1
  O  O49  1  0.541186  0.135608  0.032763  1
  O  O50  1  0.619631  0.387923  0.035948  1
  O  O51  1  0.630205  0.017626  0.427202  1
  O  O52  1  0.630885  0.484451  0.426292  1
  O  O53  1  0.615126  0.751901  0.653203  1
  O  O54  1  0.620219  0.615094  0.791272  1
  O  O55  1  0.622471  0.883032  0.797809  1
  O  O56  1  0.810648  0.106905  0.291306  1
  O  O57  1  0.804124  0.395736  0.288709  1
  O  O58  1  0.806650  0.243409  0.154319  1
  O  O59  1  0.883881  0.505911  0.925479  1
  O  O60  1  0.935261  0.002696  0.919573  1
  O  O61  1  0.888758  0.606814  0.537194  1
  O  O62  1  0.889611  0.893904  0.536390  1
  O  O63  1  0.879501  0.111054  0.784737  1
  O  O64  1  0.940166  0.390186  0.783116  1
  O  O65  1  0.945156  0.109788  0.619080  1
  O  O66  1  0.940540  0.388832  0.617500  1
  O  O67  1  0.958902  0.727044  0.002633  1
