# generated using pymatgen
data_Ti6Co3O16
_symmetry_space_group_name_H-M   'P 1'
_cell_length_a   8.42659687
_cell_length_b   8.47557116
_cell_length_c   8.39405580
_cell_angle_alpha   90.00000000
_cell_angle_beta   89.83872719
_cell_angle_gamma   90.00000000
_symmetry_Int_Tables_number   1
_chemical_formula_structural   Ti6Co3O16
_chemical_formula_sum   'Ti12 Co6 O32'
_cell_volume   599.50294875
_cell_formula_units_Z   2
loop_
 _symmetry_equiv_pos_site_id
 _symmetry_equiv_pos_as_xyz
  1  'x, y, z'
loop_
 _atom_site_type_symbol
 _atom_site_label
 _atom_site_symmetry_multiplicity
 _atom_site_fract_x
 _atom_site_fract_y
 _atom_site_fract_z
 _atom_site_occupancy
  Ti  Ti0  1  0.132641  0.115076  0.639934  1
  Ti  Ti1  1  0.106454  0.632569  0.140753  1
  Ti  Ti2  1  0.116968  0.354075  0.886239  1
  Ti  Ti3  1  0.380467  0.380005  0.639110  1
  Ti  Ti4  1  0.363875  0.635250  0.385523  1
  Ti  Ti5  1  0.355255  0.888926  0.118375  1
  Ti  Ti6  1  0.636125  0.135250  0.114477  1
  Ti  Ti7  1  0.644745  0.388926  0.381625  1
  Ti  Ti8  1  0.619533  0.880005  0.860890  1
  Ti  Ti9  1  0.893546  0.132569  0.359247  1
  Ti  Ti10  1  0.867359  0.615076  0.860066  1
  Ti  Ti11  1  0.883032  0.854075  0.613761  1
  Co  Co12  1  0.254982  0.257431  0.254103  1
  Co  Co13  1  0.241082  0.741474  0.757801  1
  Co  Co14  1  0.500578  0.005693  0.491339  1
  Co  Co15  1  0.499422  0.505693  0.008661  1
  Co  Co16  1  0.758918  0.241474  0.742199  1
  Co  Co17  1  0.745018  0.757431  0.245897  1
  O  O18  1  0.148294  0.389891  0.114814  1
  O  O19  1  0.113153  0.142701  0.385296  1
  O  O20  1  0.152878  0.350877  0.652707  1
  O  O21  1  0.146800  0.851993  0.122844  1
  O  O22  1  0.120415  0.140488  0.860787  1
  O  O23  1  0.149789  0.622499  0.355388  1
  O  O24  1  0.108866  0.887954  0.635536  1
  O  O25  1  0.102217  0.608445  0.893583  1
  O  O26  1  0.382997  0.110277  0.150150  1
  O  O27  1  0.363751  0.134688  0.603364  1
  O  O28  1  0.385827  0.391134  0.387553  1
  O  O29  1  0.368126  0.396239  0.863919  1
  O  O30  1  0.367217  0.638279  0.135596  1
  O  O31  1  0.396647  0.857349  0.363373  1
  O  O32  1  0.366663  0.607551  0.609248  1
  O  O33  1  0.393018  0.859136  0.891754  1
  O  O34  1  0.632783  0.138279  0.364404  1
  O  O35  1  0.603353  0.357349  0.136627  1
  O  O36  1  0.606982  0.359136  0.608246  1
  O  O37  1  0.617003  0.610277  0.349850  1
  O  O38  1  0.633337  0.107551  0.890752  1
  O  O39  1  0.636249  0.634688  0.896636  1
  O  O40  1  0.614173  0.891134  0.112447  1
  O  O41  1  0.631874  0.896239  0.636081  1
  O  O42  1  0.850211  0.122499  0.144612  1
  O  O43  1  0.897783  0.108445  0.606417  1
  O  O44  1  0.853200  0.351993  0.377156  1
  O  O45  1  0.886847  0.642701  0.114704  1
  O  O46  1  0.879585  0.640488  0.639213  1
  O  O47  1  0.891134  0.387954  0.864464  1
  O  O48  1  0.851706  0.889891  0.385186  1
  O  O49  1  0.847122  0.850877  0.847293  1
