# generated using pymatgen
data_Mn2FeO6
_symmetry_space_group_name_H-M   'P 1'
_cell_length_a   5.94205744
_cell_length_b   5.90989693
_cell_length_c   14.29779271
_cell_angle_alpha   90.71337736
_cell_angle_beta   90.16694936
_cell_angle_gamma   59.30547405
_symmetry_Int_Tables_number   1
_chemical_formula_structural   Mn2FeO6
_chemical_formula_sum   'Mn8 Fe4 O24'
_cell_volume   431.71494449
_cell_formula_units_Z   4
loop_
 _symmetry_equiv_pos_site_id
 _symmetry_equiv_pos_as_xyz
  1  'x, y, z'
loop_
 _atom_site_type_symbol
 _atom_site_label
 _atom_site_symmetry_multiplicity
 _atom_site_fract_x
 _atom_site_fract_y
 _atom_site_fract_z
 _atom_site_occupancy
  Mn  Mn0  1  0.336783  0.331260  0.041865  1
  Mn  Mn1  1  0.168084  0.666151  0.208400  1
  Mn  Mn2  1  0.666956  0.166643  0.208595  1
  Mn  Mn3  1  0.333044  0.833357  0.541405  1
  Mn  Mn4  1  0.831916  0.333849  0.541600  1
  Mn  Mn5  1  0.663217  0.668740  0.708135  1
  Mn  Mn6  1  0.000000  0.000000  0.375000  1
  Mn  Mn7  1  0.500000  0.000000  0.875000  1
  Fe  Fe8  1  0.832989  0.834072  0.541744  1
  Fe  Fe9  1  0.167011  0.165928  0.208256  1
  Fe  Fe10  1  0.000000  0.500000  0.875000  1
  Fe  Fe11  1  0.500000  0.500000  0.875000  1
  O  O12  1  0.855847  0.854654  0.286407  1
  O  O13  1  0.290355  0.848966  0.287729  1
  O  O14  1  0.045331  0.484149  0.128300  1
  O  O15  1  0.480549  0.477289  0.131347  1
  O  O16  1  0.335903  0.337026  0.276274  1
  O  O17  1  0.149957  0.709278  0.461990  1
  O  O18  1  0.486016  0.041675  0.128848  1
  O  O19  1  0.997858  0.995325  0.140410  1
  O  O20  1  0.664097  0.662974  0.473726  1
  O  O21  1  0.850043  0.290722  0.288010  1
  O  O22  1  0.513984  0.958325  0.621152  1
  O  O23  1  0.519451  0.522711  0.618653  1
  O  O24  1  0.954669  0.515851  0.621700  1
  O  O25  1  0.802252  0.817901  0.794373  1
  O  O26  1  0.370627  0.822382  0.795560  1
  O  O27  1  0.144153  0.145346  0.463593  1
  O  O28  1  0.709645  0.151034  0.462271  1
  O  O29  1  0.799902  0.374827  0.793163  1
  O  O30  1  0.659167  0.674353  0.943942  1
  O  O31  1  0.002142  0.004675  0.609590  1
  O  O32  1  0.340833  0.325647  0.806058  1
  O  O33  1  0.200098  0.625173  0.956837  1
  O  O34  1  0.629373  0.177618  0.954440  1
  O  O35  1  0.197748  0.182099  0.955627  1
