# generated using pymatgen
data_Li11Ni13O24
_symmetry_space_group_name_H-M   'P 1'
_cell_length_a   7.62393688
_cell_length_b   8.72257818
_cell_length_c   7.62393658
_cell_angle_alpha   72.55863639
_cell_angle_beta   69.49739110
_cell_angle_gamma   105.55610547
_symmetry_Int_Tables_number   1
_chemical_formula_structural   Li11Ni13O24
_chemical_formula_sum   'Li11 Ni13 O24'
_cell_volume   411.65284574
_cell_formula_units_Z   1
loop_
 _symmetry_equiv_pos_site_id
 _symmetry_equiv_pos_as_xyz
  1  'x, y, z'
loop_
 _atom_site_type_symbol
 _atom_site_label
 _atom_site_symmetry_multiplicity
 _atom_site_fract_x
 _atom_site_fract_y
 _atom_site_fract_z
 _atom_site_occupancy
  Li  Li0  1  0.708148  0.125000  0.916852  1
  Li  Li1  1  0.624914  0.872369  0.752546  1
  Li  Li2  1  0.962350  0.877010  0.414407  1
  Li  Li3  1  0.210307  0.625000  0.914693  1
  Li  Li4  1  0.539693  0.625000  0.585307  1
  Li  Li5  1  0.458581  0.372990  0.414661  1
  Li  Li6  1  0.787650  0.372990  0.085593  1
  Li  Li7  1  0.125086  0.377631  0.747454  1
  Li  Li8  1  0.041852  0.125000  0.583148  1
  Li  Li9  1  0.375000  0.125000  0.250000  1
  Li  Li10  1  0.291419  0.877010  0.085339  1
  Ni  Ni11  1  0.916110  0.749103  0.835205  1
  Ni  Ni12  1  0.833890  0.500897  0.664795  1
  Ni  Ni13  1  0.412694  0.248355  0.833873  1
  Ni  Ni14  1  0.751256  0.252107  0.499149  1
  Ni  Ni15  1  0.667773  0.001646  0.335661  1
  Ni  Ni16  1  0.337306  0.001646  0.666127  1
  Ni  Ni17  1  0.875000  0.625000  0.250000  1
  Ni  Ni18  1  0.584307  0.749103  0.167007  1
  Ni  Ni19  1  0.251263  0.752328  0.498935  1
  Ni  Ni20  1  0.498737  0.497672  0.001065  1
  Ni  Ni21  1  0.165693  0.500897  0.332993  1
  Ni  Ni22  1  0.082227  0.248355  0.164339  1
  Ni  Ni23  1  0.998744  0.997893  0.000851  1
  O  O24  1  0.592413  0.322329  0.950038  1
  O  O25  1  0.927717  0.315109  0.612608  1
  O  O26  1  0.822283  0.934891  0.887392  1
  O  O27  1  0.859542  0.077288  0.439032  1
  O  O28  1  0.516321  0.077288  0.782254  1
  O  O29  1  0.723828  0.675365  0.731417  1
  O  O30  1  0.983235  0.436124  0.218017  1
  O  O31  1  0.654141  0.436124  0.547111  1
  O  O32  1  0.301304  0.414538  0.886766  1
  O  O33  1  0.233679  0.172712  0.717746  1
  O  O34  1  0.890458  0.172712  0.060968  1
  O  O35  1  0.577533  0.192402  0.385131  1
  O  O36  1  0.095859  0.813876  0.952889  1
  O  O37  1  0.766765  0.813876  0.281983  1
  O  O38  1  0.448696  0.835462  0.613234  1
  O  O39  1  0.343218  0.574635  0.451537  1
  O  O40  1  0.026172  0.574635  0.768583  1
  O  O41  1  0.690407  0.570421  0.119986  1
  O  O42  1  0.272367  0.322329  0.270084  1
  O  O43  1  0.157587  0.927671  0.549962  1
  O  O44  1  0.477633  0.927671  0.229916  1
  O  O45  1  0.172467  0.057598  0.114869  1
  O  O46  1  0.059593  0.679579  0.380014  1
  O  O47  1  0.406782  0.675365  0.048463  1
