# generated using pymatgen
data_Li7Mn14O32
_symmetry_space_group_name_H-M   'P 1'
_cell_length_a   5.83284549
_cell_length_b   5.83281781
_cell_length_c   19.31771144
_cell_angle_alpha   98.68311685
_cell_angle_beta   89.99997951
_cell_angle_gamma   120.00023877
_symmetry_Int_Tables_number   1
_chemical_formula_structural   Li7Mn14O32
_chemical_formula_sum   'Li7 Mn14 O32'
_cell_volume   560.45775164
_cell_formula_units_Z   1
loop_
 _symmetry_equiv_pos_site_id
 _symmetry_equiv_pos_as_xyz
  1  'x, y, z'
loop_
 _atom_site_type_symbol
 _atom_site_label
 _atom_site_symmetry_multiplicity
 _atom_site_fract_x
 _atom_site_fract_y
 _atom_site_fract_z
 _atom_site_occupancy
  Li  Li0  1  0.903973  0.807947  0.211916  1
  Li  Li1  1  0.594352  0.188703  0.283059  1
  Li  Li2  1  0.345318  0.690636  0.535950  1
  Li  Li3  1  0.405896  0.811792  0.717678  1
  Li  Li4  1  0.654733  0.309468  0.464203  1
  Li  Li5  1  0.095477  0.190954  0.786431  1
  Li  Li6  1  0.155246  0.310492  0.965741  1
  Mn  Mn7  1  0.373239  0.746481  0.126745  1
  Mn  Mn8  1  0.373239  0.253508  0.126743  1
  Mn  Mn9  1  0.127593  0.745265  0.372858  1
  Mn  Mn10  1  0.500557  0.001119  0.001674  1
  Mn  Mn11  1  0.617676  0.745266  0.372860  1
  Mn  Mn12  1  0.880271  0.253511  0.126745  1
  Mn  Mn13  1  0.127587  0.255171  0.372858  1
  Mn  Mn14  1  0.999980  0.999957  0.499938  1
  Mn  Mn15  1  0.382376  0.254706  0.627035  1
  Mn  Mn16  1  0.872333  0.744671  0.627034  1
  Mn  Mn17  1  0.117948  0.745710  0.873484  1
  Mn  Mn18  1  0.627764  0.745711  0.873484  1
  Mn  Mn19  1  0.872334  0.254707  0.627032  1
  Mn  Mn20  1  0.627766  0.255533  0.873484  1
  O  O21  1  0.231620  0.899073  0.066517  1
  O  O22  1  0.667452  0.899074  0.066517  1
  O  O23  1  0.067352  0.607817  0.175149  1
  O  O24  1  0.190685  0.381371  0.072041  1
  O  O25  1  0.540463  0.607818  0.175149  1
  O  O26  1  0.067342  0.134687  0.175148  1
  O  O27  1  0.432726  0.865450  0.325188  1
  O  O28  1  0.667451  0.334904  0.066516  1
  O  O29  1  0.168897  0.895864  0.564752  1
  O  O30  1  0.432716  0.392452  0.325187  1
  O  O31  1  0.309525  0.619050  0.428591  1
  O  O32  1  0.559837  0.119674  0.179522  1
  O  O33  1  0.940506  0.881010  0.321502  1
  O  O34  1  0.831031  0.662060  0.435089  1
  O  O35  1  0.273024  0.104051  0.435089  1
  O  O36  1  0.040415  0.607567  0.674697  1
  O  O37  1  0.726967  0.895865  0.564752  1
  O  O38  1  0.959735  0.392451  0.325187  1
  O  O39  1  0.168895  0.337789  0.564753  1
  O  O40  1  0.059445  0.118892  0.678350  1
  O  O41  1  0.440458  0.880914  0.821359  1
  O  O42  1  0.690447  0.380894  0.571324  1
  O  O43  1  0.831028  0.104052  0.435090  1
  O  O44  1  0.567150  0.607564  0.674697  1
  O  O45  1  0.567144  0.134286  0.674697  1
  O  O46  1  0.330925  0.661851  0.934495  1
  O  O47  1  0.933142  0.866283  0.824916  1
  O  O48  1  0.458627  0.391762  0.824916  1
  O  O49  1  0.933134  0.391762  0.824915  1
  O  O50  1  0.808893  0.617784  0.926697  1
  O  O51  1  0.330920  0.103560  0.934495  1
  O  O52  1  0.772639  0.103560  0.934495  1
