# generated using pymatgen
data_Mn15NiO32
_symmetry_space_group_name_H-M   'P 1'
_cell_length_a   8.23564621
_cell_length_b   8.23564621
_cell_length_c   8.23564621
_cell_angle_alpha   90.23833917
_cell_angle_beta   89.76166083
_cell_angle_gamma   89.76166083
_symmetry_Int_Tables_number   1
_chemical_formula_structural   Mn15NiO32
_chemical_formula_sum   'Mn15 Ni1 O32'
_cell_volume   558.57531815
_cell_formula_units_Z   1
loop_
 _symmetry_equiv_pos_site_id
 _symmetry_equiv_pos_as_xyz
  1  'x, y, z'
loop_
 _atom_site_type_symbol
 _atom_site_label
 _atom_site_symmetry_multiplicity
 _atom_site_fract_x
 _atom_site_fract_y
 _atom_site_fract_z
 _atom_site_occupancy
  Mn  Mn0  1  0.125569  0.123996  0.623587  1
  Mn  Mn1  1  0.125000  0.375464  0.874536  1
  Mn  Mn2  1  0.124431  0.626413  0.126004  1
  Mn  Mn3  1  0.374497  0.375000  0.624497  1
  Mn  Mn4  1  0.375005  0.125005  0.875000  1
  Mn  Mn5  1  0.373587  0.626004  0.375569  1
  Mn  Mn6  1  0.373996  0.875569  0.126413  1
  Mn  Mn7  1  0.624536  0.374536  0.375000  1
  Mn  Mn8  1  0.625000  0.124497  0.125503  1
  Mn  Mn9  1  0.625000  0.624995  0.625005  1
  Mn  Mn10  1  0.625464  0.875000  0.875464  1
  Mn  Mn11  1  0.876004  0.123587  0.374431  1
  Mn  Mn12  1  0.874995  0.375000  0.124995  1
  Mn  Mn13  1  0.876413  0.874431  0.623996  1
  Mn  Mn14  1  0.875503  0.625503  0.875000  1
  Ni  Ni15  1  0.125000  0.875000  0.375000  1
  O  O16  1  0.110938  0.106332  0.388701  1
  O  O17  1  0.111299  0.889062  0.606332  1
  O  O18  1  0.110750  0.611099  0.889994  1
  O  O19  1  0.110378  0.390509  0.110087  1
  O  O20  1  0.139622  0.139913  0.859491  1
  O  O21  1  0.139250  0.360006  0.638901  1
  O  O22  1  0.138701  0.643668  0.360938  1
  O  O23  1  0.139062  0.861299  0.143668  1
  O  O24  1  0.360758  0.139356  0.639117  1
  O  O25  1  0.359954  0.360452  0.859736  1
  O  O26  1  0.360170  0.639830  0.139830  1
  O  O27  1  0.356332  0.860938  0.361299  1
  O  O28  1  0.389117  0.610644  0.610758  1
  O  O29  1  0.388901  0.389994  0.389250  1
  O  O30  1  0.389356  0.110758  0.110883  1
  O  O31  1  0.389913  0.889622  0.890509  1
  O  O32  1  0.609736  0.389548  0.609954  1
  O  O33  1  0.609491  0.610087  0.389622  1
  O  O34  1  0.610006  0.889250  0.111099  1
  O  O35  1  0.610452  0.109954  0.890264  1
  O  O36  1  0.639548  0.359736  0.140046  1
  O  O37  1  0.639994  0.138901  0.360750  1
  O  O38  1  0.640509  0.860378  0.639913  1
  O  O39  1  0.640264  0.640046  0.860452  1
  O  O40  1  0.860087  0.359491  0.360378  1
  O  O41  1  0.860644  0.139117  0.139242  1
  O  O42  1  0.861099  0.860750  0.860006  1
  O  O43  1  0.860883  0.639242  0.639356  1
  O  O44  1  0.893668  0.888701  0.389062  1
  O  O45  1  0.889830  0.110170  0.610170  1
  O  O46  1  0.890046  0.390264  0.889548  1
  O  O47  1  0.889242  0.610883  0.110644  1
