# generated using pymatgen
data_Li5Cr4O8
_symmetry_space_group_name_H-M   'P 1'
_cell_length_a   5.93410870
_cell_length_b   6.06286091
_cell_length_c   9.96338677
_cell_angle_alpha   89.93521828
_cell_angle_beta   89.86598706
_cell_angle_gamma   60.69959017
_symmetry_Int_Tables_number   1
_chemical_formula_structural   Li5Cr4O8
_chemical_formula_sum   'Li10 Cr8 O16'
_cell_volume   312.59940382
_cell_formula_units_Z   2
loop_
 _symmetry_equiv_pos_site_id
 _symmetry_equiv_pos_as_xyz
  1  'x, y, z'
loop_
 _atom_site_type_symbol
 _atom_site_label
 _atom_site_symmetry_multiplicity
 _atom_site_fract_x
 _atom_site_fract_y
 _atom_site_fract_z
 _atom_site_occupancy
  Li  Li0  1  0.824115  0.790271  0.937153  1
  Li  Li1  1  0.384071  0.788484  0.936321  1
  Li  Li2  1  0.793859  0.410351  0.949708  1
  Li  Li3  1  0.684659  0.632578  0.723079  1
  Li  Li4  1  0.989682  0.021980  0.013245  1
  Li  Li5  1  0.204197  0.589649  0.449713  1
  Li  Li6  1  0.011675  0.978011  0.513247  1
  Li  Li7  1  0.614388  0.209733  0.437159  1
  Li  Li8  1  0.317221  0.367410  0.223102  1
  Li  Li9  1  0.172518  0.211534  0.436335  1
  Cr  Cr10  1  0.661640  0.676147  0.473590  1
  Cr  Cr11  1  0.320576  0.863153  0.214168  1
  Cr  Cr12  1  0.337725  0.323929  0.973614  1
  Cr  Cr13  1  0.183745  0.136835  0.714174  1
  Cr  Cr14  1  0.816740  0.863214  0.214117  1
  Cr  Cr15  1  0.183012  0.634161  0.714144  1
  Cr  Cr16  1  0.817156  0.365829  0.214149  1
  Cr  Cr17  1  0.679977  0.136778  0.714123  1
  O  O18  1  0.017359  0.964794  0.824545  1
  O  O19  1  0.856276  0.811570  0.598073  1
  O  O20  1  0.487426  0.024619  0.325706  1
  O  O21  1  0.968076  0.537663  0.332238  1
  O  O22  1  0.655847  0.689410  0.099964  1
  O  O23  1  0.332757  0.811823  0.598413  1
  O  O24  1  0.493823  0.537504  0.332478  1
  O  O25  1  0.144587  0.712515  0.101271  1
  O  O26  1  0.857121  0.287479  0.601274  1
  O  O27  1  0.505747  0.462334  0.832247  1
  O  O28  1  0.031338  0.462498  0.832477  1
  O  O29  1  0.345281  0.310570  0.599967  1
  O  O30  1  0.982135  0.035191  0.324544  1
  O  O31  1  0.667829  0.188422  0.098074  1
  O  O32  1  0.512062  0.975386  0.825712  1
  O  O33  1  0.144568  0.188173  0.098412  1
