# generated using pymatgen
data_LiSi6BiO14
_symmetry_space_group_name_H-M   'P 1'
_cell_length_a   13.14930429
_cell_length_b   13.14930429
_cell_length_c   7.65905383
_cell_angle_alpha   73.06813838
_cell_angle_beta   106.93186162
_cell_angle_gamma   82.72329686
_symmetry_Int_Tables_number   1
_chemical_formula_structural   LiSi6BiO14
_chemical_formula_sum   'Li4 Si24 Bi4 O56'
_cell_volume   1179.15896883
_cell_formula_units_Z   4
loop_
 _symmetry_equiv_pos_site_id
 _symmetry_equiv_pos_as_xyz
  1  'x, y, z'
loop_
 _atom_site_type_symbol
 _atom_site_label
 _atom_site_symmetry_multiplicity
 _atom_site_fract_x
 _atom_site_fract_y
 _atom_site_fract_z
 _atom_site_occupancy
  Li  Li0  1  0.750000  0.750000  0.000000  1
  Li  Li1  1  0.250000  0.250000  0.000000  1
  Li  Li2  1  0.000000  0.000000  0.500000  1
  Li  Li3  1  0.500000  0.500000  0.500000  1
  Si  Si4  1  0.867581  0.132419  0.043291  1
  Si  Si5  1  0.632419  0.367581  0.308129  1
  Si  Si6  1  0.333754  0.666246  0.072855  1
  Si  Si7  1  0.425169  0.277887  0.332411  1
  Si  Si8  1  0.074831  0.222113  0.185130  1
  Si  Si9  1  0.777887  0.925169  0.185130  1
  Si  Si10  1  0.722113  0.574831  0.332411  1
  Si  Si11  1  0.833754  0.166246  0.594653  1
  Si  Si12  1  0.269847  0.026318  0.475961  1
  Si  Si13  1  0.526318  0.769847  0.232432  1
  Si  Si14  1  0.973682  0.730153  0.475961  1
  Si  Si15  1  0.230153  0.473682  0.232432  1
  Si  Si16  1  0.026318  0.269847  0.524039  1
  Si  Si17  1  0.730153  0.973682  0.524039  1
  Si  Si18  1  0.473682  0.230153  0.767568  1
  Si  Si19  1  0.769847  0.526318  0.767568  1
  Si  Si20  1  0.166246  0.833754  0.405347  1
  Si  Si21  1  0.925169  0.777887  0.814870  1
  Si  Si22  1  0.277887  0.425169  0.667589  1
  Si  Si23  1  0.574831  0.722113  0.667589  1
  Si  Si24  1  0.222113  0.074831  0.814870  1
  Si  Si25  1  0.666246  0.333754  0.927145  1
  Si  Si26  1  0.367581  0.632419  0.691871  1
  Si  Si27  1  0.132419  0.867581  0.956709  1
  Bi  Bi28  1  0.465505  0.034495  0.215505  1
  Bi  Bi29  1  0.965505  0.534495  0.215505  1
  Bi  Bi30  1  0.034495  0.465505  0.784495  1
  Bi  Bi31  1  0.534495  0.965505  0.784495  1
  O  O32  1  0.986954  0.141462  0.173130  1
  O  O33  1  0.858538  0.013046  0.173130  1
  O  O34  1  0.770528  0.229472  0.025368  1
  O  O35  1  0.918409  0.708446  0.018968  1
  O  O36  1  0.291554  0.081591  0.018968  1
  O  O37  1  0.636321  0.363679  0.100454  1
  O  O38  1  0.418409  0.208446  0.190996  1
  O  O39  1  0.791554  0.581591  0.190996  1
  O  O40  1  0.939769  0.188273  0.532119  1
  O  O41  1  0.811727  0.060231  0.532119  1
  O  O42  1  0.614431  0.015775  0.539518  1
  O  O43  1  0.984225  0.385569  0.539518  1
  O  O44  1  0.513046  0.358538  0.327637  1
  O  O45  1  0.641462  0.486954  0.327637  1
  O  O46  1  0.729472  0.270528  0.484312  1
  O  O47  1  0.484225  0.885569  0.059139  1
  O  O48  1  0.114431  0.515775  0.059139  1
  O  O49  1  0.303300  0.357367  0.257012  1
  O  O50  1  0.196700  0.142633  0.311079  1
  O  O51  1  0.857367  0.803300  0.311079  1
  O  O52  1  0.642633  0.696700  0.257012  1
  O  O53  1  0.311727  0.560231  0.219378  1
  O  O54  1  0.439769  0.688273  0.219378  1
  O  O55  1  0.040861  0.295640  0.309138  1
  O  O56  1  0.704360  0.959139  0.309138  1
  O  O57  1  0.459139  0.204360  0.563916  1
  O  O58  1  0.795640  0.540861  0.563916  1
  O  O59  1  0.863679  0.136321  0.827812  1
  O  O60  1  0.136321  0.863679  0.172188  1
  O  O61  1  0.204360  0.459139  0.436084  1
  O  O62  1  0.959139  0.704360  0.690862  1
  O  O63  1  0.295640  0.040861  0.690862  1
  O  O64  1  0.540861  0.795640  0.436084  1
  O  O65  1  0.688273  0.439769  0.780622  1
  O  O66  1  0.560231  0.311727  0.780622  1
  O  O67  1  0.803300  0.857367  0.688921  1
  O  O68  1  0.357367  0.303300  0.742988  1
  O  O69  1  0.142633  0.196700  0.688921  1
  O  O70  1  0.696700  0.642633  0.742988  1
  O  O71  1  0.515775  0.114431  0.940861  1
  O  O72  1  0.885569  0.484225  0.940861  1
  O  O73  1  0.270528  0.729472  0.515688  1
  O  O74  1  0.358538  0.513046  0.672363  1
  O  O75  1  0.486954  0.641462  0.672363  1
  O  O76  1  0.385569  0.984225  0.460482  1
  O  O77  1  0.015775  0.614431  0.460482  1
  O  O78  1  0.060231  0.811727  0.467881  1
  O  O79  1  0.188273  0.939769  0.467881  1
  O  O80  1  0.208446  0.418409  0.809004  1
  O  O81  1  0.581591  0.791554  0.809004  1
  O  O82  1  0.363679  0.636321  0.899546  1
  O  O83  1  0.081591  0.291554  0.981032  1
  O  O84  1  0.708446  0.918409  0.981032  1
  O  O85  1  0.229472  0.770528  0.974632  1
  O  O86  1  0.013046  0.858538  0.826870  1
  O  O87  1  0.141462  0.986954  0.826870  1
