# generated using pymatgen
data_LiReO3
_symmetry_space_group_name_H-M   'P 1'
_cell_length_a   5.42687190
_cell_length_b   5.42687189
_cell_length_c   5.42687190
_cell_angle_alpha   56.53744546
_cell_angle_beta   56.53744543
_cell_angle_gamma   56.53744545
_symmetry_Int_Tables_number   1
_chemical_formula_structural   LiReO3
_chemical_formula_sum   'Li2 Re2 O6'
_cell_volume   103.97122104
_cell_formula_units_Z   2
loop_
 _symmetry_equiv_pos_site_id
 _symmetry_equiv_pos_as_xyz
  1  'x, y, z'
loop_
 _atom_site_type_symbol
 _atom_site_label
 _atom_site_symmetry_multiplicity
 _atom_site_fract_x
 _atom_site_fract_y
 _atom_site_fract_z
 _atom_site_occupancy
  Li  Li0  1  0.782145  0.782145  0.782145  1
  Li  Li1  1  0.282145  0.282145  0.282145  1
  O  O2  1  0.739769  0.132580  0.359243  1
  O  O3  1  0.359243  0.739769  0.132580  1
  O  O4  1  0.859243  0.632580  0.239769  1
  O  O5  1  0.239769  0.859243  0.632580  1
  O  O6  1  0.632580  0.239769  0.859243  1
  O  O7  1  0.132580  0.359243  0.739769  1
  Re  Re8  1  0.497263  0.497263  0.497263  1
  Re  Re9  1  0.997263  0.997263  0.997263  1
