# generated using pymatgen
data_LiCuO2
_symmetry_space_group_name_H-M   'P 1'
_cell_length_a   2.73525569
_cell_length_b   3.23430069
_cell_length_c   5.06775525
_cell_angle_alpha   80.98858712
_cell_angle_beta   74.34355407
_cell_angle_gamma   64.98527459
_symmetry_Int_Tables_number   1
_chemical_formula_structural   LiCuO2
_chemical_formula_sum   'Li1 Cu1 O2'
_cell_volume   39.07341310
_cell_formula_units_Z   1
loop_
 _symmetry_equiv_pos_site_id
 _symmetry_equiv_pos_as_xyz
  1  'x, y, z'
loop_
 _atom_site_type_symbol
 _atom_site_label
 _atom_site_symmetry_multiplicity
 _atom_site_fract_x
 _atom_site_fract_y
 _atom_site_fract_z
 _atom_site_occupancy
  Li  Li0  1  0.000000  0.500000  0.500000  1
  O  O1  1  0.583965  0.085569  0.746501  1
  O  O2  1  0.416035  0.914431  0.253499  1
  Cu  Cu3  1  0.000000  0.000000  0.000000  1
