# generated using pymatgen
data_MgCr2S5
_symmetry_space_group_name_H-M   'P 1'
_cell_length_a   4.02455912
_cell_length_b   5.95979640
_cell_length_c   14.01281818
_cell_angle_alpha   89.90814583
_cell_angle_beta   90.00024265
_cell_angle_gamma   89.99903776
_symmetry_Int_Tables_number   1
_chemical_formula_structural   MgCr2S5
_chemical_formula_sum   'Mg2 Cr4 S10'
_cell_volume   336.10476040
_cell_formula_units_Z   2
loop_
 _symmetry_equiv_pos_site_id
 _symmetry_equiv_pos_as_xyz
  1  'x, y, z'
loop_
 _atom_site_type_symbol
 _atom_site_label
 _atom_site_symmetry_multiplicity
 _atom_site_fract_x
 _atom_site_fract_y
 _atom_site_fract_z
 _atom_site_occupancy
  Mg  Mg0  1  0.749999  0.870667  0.250205  1
  Mg  Mg1  1  0.250002  0.128826  0.749726  1
  Cr  Cr2  1  0.249963  0.415647  0.097880  1
  Cr  Cr3  1  0.750024  0.586703  0.902007  1
  Cr  Cr4  1  0.750030  0.586929  0.597774  1
  Cr  Cr5  1  0.250027  0.413129  0.401659  1
  S  S6  1  0.750002  0.429077  0.750382  1
  S  S7  1  0.249998  0.570879  0.249669  1
  S  S8  1  0.749979  0.598130  0.067892  1
  S  S9  1  0.249977  0.401647  0.932280  1
  S  S10  1  0.750006  0.598770  0.431990  1
  S  S11  1  0.249986  0.400773  0.568171  1
  S  S12  1  0.250000  0.071733  0.358229  1
  S  S13  1  0.750003  0.927779  0.641915  1
  S  S14  1  0.749994  0.928157  0.858224  1
  S  S15  1  0.250001  0.071153  0.141995  1
