# generated using pymatgen
data_MgMn4O8
_symmetry_space_group_name_H-M   'P 1'
_cell_length_a   2.97969750
_cell_length_b   7.27403448
_cell_length_c   7.34917090
_cell_angle_alpha   80.56456936
_cell_angle_beta   78.31179936
_cell_angle_gamma   78.18428716
_symmetry_Int_Tables_number   1
_chemical_formula_structural   MgMn4O8
_chemical_formula_sum   'Mg1 Mn4 O8'
_cell_volume   151.42988194
_cell_formula_units_Z   1
loop_
 _symmetry_equiv_pos_site_id
 _symmetry_equiv_pos_as_xyz
  1  'x, y, z'
loop_
 _atom_site_type_symbol
 _atom_site_label
 _atom_site_symmetry_multiplicity
 _atom_site_fract_x
 _atom_site_fract_y
 _atom_site_fract_z
 _atom_site_occupancy
  Mg  Mg0  1  0.337546  0.128648  0.196562  1
  Mn  Mn1  1  0.633262  0.170773  0.562925  1
  Mn  Mn2  1  0.144303  0.505488  0.205837  1
  Mn  Mn3  1  0.837562  0.484057  0.840962  1
  Mn  Mn4  1  0.352929  0.802965  0.491071  1
  O  O5  1  0.855756  0.670188  0.618250  1
  O  O6  1  0.451651  0.338605  0.758280  1
  O  O7  1  0.534085  0.645160  0.286568  1
  O  O8  1  0.140857  0.300778  0.417715  1
  O  O9  1  0.164566  0.010762  0.660329  1
  O  O10  1  0.789403  0.323966  0.097713  1
  O  O11  1  0.839733  0.976345  0.344359  1
  O  O12  1  0.215830  0.618374  0.950077  1
