# generated using pymatgen
data_WO2
_symmetry_space_group_name_H-M   'P 1'
_cell_length_a   6.54895117
_cell_length_b   6.51862415
_cell_length_c   19.05944763
_cell_angle_alpha   59.55301450
_cell_angle_beta   59.67490018
_cell_angle_gamma   59.48689953
_symmetry_Int_Tables_number   1
_chemical_formula_structural   WO2
_chemical_formula_sum   'W12 O24'
_cell_volume   569.73173477
_cell_formula_units_Z   12
loop_
 _symmetry_equiv_pos_site_id
 _symmetry_equiv_pos_as_xyz
  1  'x, y, z'
loop_
 _atom_site_type_symbol
 _atom_site_label
 _atom_site_symmetry_multiplicity
 _atom_site_fract_x
 _atom_site_fract_y
 _atom_site_fract_z
 _atom_site_occupancy
  W  W0  1  0.494607  0.504587  0.162815  1
  W  W1  1  0.000565  0.490656  0.502842  1
  W  W2  1  0.508836  0.500372  0.329342  1
  W  W3  1  0.498851  0.025670  0.162905  1
  W  W4  1  0.497482  0.497864  0.498603  1
  W  W5  1  0.019638  0.497235  0.160847  1
  W  W6  1  0.492821  0.509403  0.665047  1
  W  W7  1  0.493723  0.002475  0.499081  1
  W  W8  1  0.498946  0.497734  0.833962  1
  W  W9  1  0.488815  0.000665  0.840084  1
  W  W10  1  0.003294  0.499791  0.833525  1
  W  W11  1  0.881614  0.877568  0.954510  1
  O  O12  1  0.261405  0.222076  0.103724  1
  O  O13  1  0.245950  0.696547  0.100942  1
  O  O14  1  0.277200  0.260937  0.232116  1
  O  O15  1  0.704663  0.238053  0.105167  1
  O  O16  1  0.286796  0.263141  0.420636  1
  O  O17  1  0.330302  0.740312  0.236506  1
  O  O18  1  0.742390  0.757930  0.084686  1
  O  O19  1  0.739577  0.329651  0.235295  1
  O  O20  1  0.281178  0.683394  0.420122  1
  O  O21  1  0.293544  0.254952  0.565564  1
  O  O22  1  0.692282  0.265398  0.418512  1
  O  O23  1  0.733577  0.745146  0.230691  1
  O  O24  1  0.266845  0.291210  0.753669  1
  O  O25  1  0.299894  0.720813  0.583162  1
  O  O26  1  0.709979  0.728084  0.441462  1
  O  O27  1  0.704432  0.309030  0.583903  1
  O  O28  1  0.251614  0.296214  0.901281  1
  O  O29  1  0.269059  0.693113  0.755817  1
  O  O30  1  0.677900  0.282287  0.757367  1
  O  O31  1  0.700960  0.724514  0.588170  1
  O  O32  1  0.255886  0.755502  0.905261  1
  O  O33  1  0.778536  0.252008  0.899763  1
  O  O34  1  0.721213  0.708455  0.781904  1
  O  O35  1  0.774024  0.755617  0.905616  1
