# generated using pymatgen
data_MgFeP2O7
_symmetry_space_group_name_H-M   'P 1'
_cell_length_a   6.55713197
_cell_length_b   6.38061013
_cell_length_c   6.73106765
_cell_angle_alpha   66.38321339
_cell_angle_beta   81.38779816
_cell_angle_gamma   80.18443116
_symmetry_Int_Tables_number   1
_chemical_formula_structural   MgFeP2O7
_chemical_formula_sum   'Mg2 Fe2 P4 O14'
_cell_volume   253.21706264
_cell_formula_units_Z   2
loop_
 _symmetry_equiv_pos_site_id
 _symmetry_equiv_pos_as_xyz
  1  'x, y, z'
loop_
 _atom_site_type_symbol
 _atom_site_label
 _atom_site_symmetry_multiplicity
 _atom_site_fract_x
 _atom_site_fract_y
 _atom_site_fract_z
 _atom_site_occupancy
  Mg  Mg0  1  0.865027  0.290069  0.154643  1
  Mg  Mg1  1  0.134973  0.709931  0.845357  1
  Fe  Fe2  1  0.661289  0.104440  0.777000  1
  Fe  Fe3  1  0.338711  0.895560  0.223000  1
  P  P4  1  0.157211  0.222921  0.755842  1
  P  P5  1  0.842789  0.777079  0.244158  1
  P  P6  1  0.617630  0.640010  0.687876  1
  P  P7  1  0.382370  0.359990  0.312124  1
  O  O8  1  0.760183  0.606957  0.479131  1
  O  O9  1  0.239817  0.393043  0.520869  1
  O  O10  1  0.006055  0.070704  0.739259  1
  O  O11  1  0.993945  0.929296  0.260741  1
  O  O12  1  0.605988  0.268262  0.378412  1
  O  O13  1  0.394012  0.731738  0.621588  1
  O  O14  1  0.363073  0.608540  0.141579  1
  O  O15  1  0.636927  0.391460  0.858420  1
  O  O16  1  0.940313  0.610526  0.133179  1
  O  O17  1  0.059687  0.389474  0.866821  1
  O  O18  1  0.655975  0.939505  0.134331  1
  O  O19  1  0.344025  0.060495  0.865669  1
  O  O20  1  0.274056  0.201386  0.256065  1
  O  O21  1  0.725944  0.798614  0.743935  1
