# generated using pymatgen
data_TiO2
_symmetry_space_group_name_H-M   'P 1'
_cell_length_a   2.94819463
_cell_length_b   5.01793431
_cell_length_c   10.23522302
_cell_angle_alpha   90.00000000
_cell_angle_beta   90.00000000
_cell_angle_gamma   107.08354794
_symmetry_Int_Tables_number   1
_chemical_formula_structural   TiO2
_chemical_formula_sum   'Ti4 O8'
_cell_volume   144.73735428
_cell_formula_units_Z   4
loop_
 _symmetry_equiv_pos_site_id
 _symmetry_equiv_pos_as_xyz
  1  'x, y, z'
loop_
 _atom_site_type_symbol
 _atom_site_label
 _atom_site_symmetry_multiplicity
 _atom_site_fract_x
 _atom_site_fract_y
 _atom_site_fract_z
 _atom_site_occupancy
  Ti  Ti0  1  0.866912  0.733825  0.083142  1
  Ti  Ti1  1  0.133088  0.266175  0.916858  1
  Ti  Ti2  1  0.866912  0.733825  0.416858  1
  Ti  Ti3  1  0.133088  0.266175  0.583142  1
  O  O4  1  0.245599  0.491199  0.397134  1
  O  O5  1  0.754401  0.508801  0.602866  1
  O  O6  1  0.754401  0.508801  0.897134  1
  O  O7  1  0.245599  0.491199  0.102866  1
  O  O8  1  0.934234  0.868470  0.250000  1
  O  O9  1  0.065766  0.131530  0.750000  1
  O  O10  1  0.500000  0.000000  0.000000  1
  O  O11  1  0.500000  0.000000  0.500000  1
