# generated using pymatgen
data_NiO2
_symmetry_space_group_name_H-M   'P 1'
_cell_length_a   5.68536433
_cell_length_b   5.72807914
_cell_length_c   5.72807888
_cell_angle_alpha   59.99999596
_cell_angle_beta   59.75115386
_cell_angle_gamma   59.75115842
_symmetry_Int_Tables_number   1
_chemical_formula_structural   NiO2
_chemical_formula_sum   'Ni4 O8'
_cell_volume   131.40669942
_cell_formula_units_Z   4
loop_
 _symmetry_equiv_pos_site_id
 _symmetry_equiv_pos_as_xyz
  1  'x, y, z'
loop_
 _atom_site_type_symbol
 _atom_site_label
 _atom_site_symmetry_multiplicity
 _atom_site_fract_x
 _atom_site_fract_y
 _atom_site_fract_z
 _atom_site_occupancy
  Ni  Ni0  1  0.263708  0.245431  0.245431  1
  Ni  Ni1  1  0.623849  0.119932  0.628110  1
  Ni  Ni2  1  0.623849  0.628110  0.119931  1
  Ni  Ni3  1  0.623849  0.628110  0.628110  1
  O  O4  1  0.406254  0.372490  0.372490  1
  O  O5  1  0.406254  0.372490  0.848766  1
  O  O6  1  0.406254  0.848766  0.372490  1
  O  O7  1  0.852854  0.382382  0.382382  1
  O  O8  1  0.407271  0.864242  0.864242  1
  O  O9  1  0.839404  0.420395  0.870101  1
  O  O10  1  0.839404  0.870101  0.420395  1
  O  O11  1  0.839404  0.870101  0.870101  1
