# generated using pymatgen
data_MgCrF5
_symmetry_space_group_name_H-M   'P 1'
_cell_length_a   5.28548839
_cell_length_b   5.28548800
_cell_length_c   7.42827497
_cell_angle_alpha   97.80614559
_cell_angle_beta   111.21382550
_cell_angle_gamma   107.49171811
_symmetry_Int_Tables_number   1
_chemical_formula_structural   MgCrF5
_chemical_formula_sum   'Mg2 Cr2 F10'
_cell_volume   177.39333825
_cell_formula_units_Z   2
loop_
 _symmetry_equiv_pos_site_id
 _symmetry_equiv_pos_as_xyz
  1  'x, y, z'
loop_
 _atom_site_type_symbol
 _atom_site_label
 _atom_site_symmetry_multiplicity
 _atom_site_fract_x
 _atom_site_fract_y
 _atom_site_fract_z
 _atom_site_occupancy
  Mg  Mg0  1  0.273825  0.523825  0.750000  1
  Mg  Mg1  1  0.726175  0.476175  0.250000  1
  Cr  Cr2  1  0.000000  0.000000  0.000000  1
  Cr  Cr3  1  0.500000  0.000000  0.500000  1
  F  F4  1  0.361196  0.111196  0.250000  1
  F  F5  1  0.638804  0.888804  0.750000  1
  F  F6  1  0.590317  0.722380  0.370251  1
  F  F7  1  0.852129  0.220067  0.129749  1
  F  F8  1  0.753996  0.684568  0.045568  1
  F  F9  1  0.139000  0.708428  0.454432  1
  F  F10  1  0.246004  0.315432  0.954432  1
  F  F11  1  0.861000  0.291572  0.545568  1
  F  F12  1  0.147871  0.779933  0.870251  1
  F  F13  1  0.409683  0.277620  0.629749  1
