# generated using pymatgen
data_MgFeO2
_symmetry_space_group_name_H-M   'P 1'
_cell_length_a   3.09969718
_cell_length_b   8.22418835
_cell_length_c   8.27420271
_cell_angle_alpha   73.67059809
_cell_angle_beta   78.89805288
_cell_angle_gamma   80.15340658
_symmetry_Int_Tables_number   1
_chemical_formula_structural   MgFeO2
_chemical_formula_sum   'Mg4 Fe4 O8'
_cell_volume   197.09761802
_cell_formula_units_Z   4
loop_
 _symmetry_equiv_pos_site_id
 _symmetry_equiv_pos_as_xyz
  1  'x, y, z'
loop_
 _atom_site_type_symbol
 _atom_site_label
 _atom_site_symmetry_multiplicity
 _atom_site_fract_x
 _atom_site_fract_y
 _atom_site_fract_z
 _atom_site_occupancy
  Mg  Mg0  1  0.317955  0.115963  0.250199  1
  Mg  Mg1  1  0.678326  0.864649  0.776491  1
  Mg  Mg2  1  0.047362  0.776700  0.128922  1
  Mg  Mg3  1  0.949489  0.202171  0.900109  1
  Fe  Fe4  1  0.582464  0.246349  0.574848  1
  Fe  Fe5  1  0.177365  0.452038  0.189126  1
  Fe  Fe6  1  0.819512  0.526277  0.839128  1
  Fe  Fe7  1  0.411752  0.732957  0.455694  1
  O  O8  1  0.837618  0.723943  0.608200  1
  O  O9  1  0.444170  0.345324  0.780121  1
  O  O10  1  0.551231  0.636235  0.249245  1
  O  O11  1  0.157647  0.256171  0.420719  1
  O  O12  1  0.102449  0.019444  0.787800  1
  O  O13  1  0.794435  0.311928  0.093957  1
  O  O14  1  0.893664  0.962263  0.238635  1
  O  O15  1  0.202836  0.666922  0.932426  1
