# generated using pymatgen
data_V2S5
_symmetry_space_group_name_H-M   'P 1'
_cell_length_a   4.33421170
_cell_length_b   6.51143634
_cell_length_c   13.86583969
_cell_angle_alpha   90.01442131
_cell_angle_beta   90.00068115
_cell_angle_gamma   90.00051796
_symmetry_Int_Tables_number   1
_chemical_formula_structural   V2S5
_chemical_formula_sum   'V4 S10'
_cell_volume   391.32093279
_cell_formula_units_Z   2
loop_
 _symmetry_equiv_pos_site_id
 _symmetry_equiv_pos_as_xyz
  1  'x, y, z'
loop_
 _atom_site_type_symbol
 _atom_site_label
 _atom_site_symmetry_multiplicity
 _atom_site_fract_x
 _atom_site_fract_y
 _atom_site_fract_z
 _atom_site_occupancy
  V  V0  1  0.018609  0.099415  0.149593  1
  V  V1  1  0.518601  0.900677  0.350443  1
  V  V2  1  0.518573  0.900805  0.649659  1
  V  V3  1  0.018649  0.099125  0.850197  1
  S  S4  1  0.518591  0.974928  0.179495  1
  S  S5  1  0.018590  0.024715  0.320548  1
  S  S6  1  0.018573  0.024671  0.679427  1
  S  S7  1  0.518620  0.975027  0.820395  1
  S  S8  1  0.018572  0.408630  0.858042  1
  S  S9  1  0.518496  0.592234  0.641958  1
  S  S10  1  0.518551  0.591433  0.358274  1
  S  S11  1  0.518537  0.033811  0.500136  1
  S  S12  1  0.018474  0.966096  0.999928  1
  S  S13  1  0.018556  0.408434  0.141904  1
