# generated using pymatgen
data_Mo3O8
_symmetry_space_group_name_H-M   'P 1'
_cell_length_a   5.06517086
_cell_length_b   6.07771993
_cell_length_c   6.50880156
_cell_angle_alpha   117.83227435
_cell_angle_beta   108.78092602
_cell_angle_gamma   89.99999935
_symmetry_Int_Tables_number   1
_chemical_formula_structural   Mo3O8
_chemical_formula_sum   'Mo3 O8'
_cell_volume   165.03192950
_cell_formula_units_Z   1
loop_
 _symmetry_equiv_pos_site_id
 _symmetry_equiv_pos_as_xyz
  1  'x, y, z'
loop_
 _atom_site_type_symbol
 _atom_site_label
 _atom_site_symmetry_multiplicity
 _atom_site_fract_x
 _atom_site_fract_y
 _atom_site_fract_z
 _atom_site_occupancy
  Mo  Mo0  1  0.500000  0.999999  0.000000  1
  Mo  Mo1  1  0.999999  0.710220  0.000000  1
  Mo  Mo2  1  0.999999  0.289780  1.000000  1
  O  O3  1  0.057164  0.383596  0.767193  1
  O  O4  1  0.942836  0.616403  0.232807  1
  O  O5  1  0.097239  0.903445  0.806890  1
  O  O6  1  0.902761  0.096554  0.193109  1
  O  O7  1  0.392932  0.323077  0.188550  1
  O  O8  1  0.392932  0.865473  0.188550  1
  O  O9  1  0.607069  0.134526  0.811450  1
  O  O10  1  0.607069  0.676923  0.811450  1
