# generated using pymatgen
data_Mg2Bi2O5
_symmetry_space_group_name_H-M   'P 1'
_cell_length_a   4.06393694
_cell_length_b   6.34717601
_cell_length_c   10.95200185
_cell_angle_alpha   89.99926177
_cell_angle_beta   90.00562082
_cell_angle_gamma   90.00022572
_symmetry_Int_Tables_number   1
_chemical_formula_structural   Mg2Bi2O5
_chemical_formula_sum   'Mg4 Bi4 O10'
_cell_volume   282.50166254
_cell_formula_units_Z   2
loop_
 _symmetry_equiv_pos_site_id
 _symmetry_equiv_pos_as_xyz
  1  'x, y, z'
loop_
 _atom_site_type_symbol
 _atom_site_label
 _atom_site_symmetry_multiplicity
 _atom_site_fract_x
 _atom_site_fract_y
 _atom_site_fract_z
 _atom_site_occupancy
  Mg  Mg0  1  0.499985  0.130794  0.903631  1
  Mg  Mg1  1  0.500088  0.869214  0.096367  1
  Mg  Mg2  1  0.500133  0.630776  0.596359  1
  Mg  Mg3  1  0.499979  0.369205  0.403631  1
  Bi  Bi4  1  0.000008  0.185814  0.622765  1
  Bi  Bi5  1  0.999984  0.814174  0.377239  1
  Bi  Bi6  1  0.000014  0.314171  0.122766  1
  Bi  Bi7  1  0.999980  0.685832  0.877238  1
  O  O8  1  0.999965  0.500013  0.500009  1
  O  O9  1  0.000059  0.228394  0.311050  1
  O  O10  1  0.999922  0.728402  0.188959  1
  O  O11  1  0.000047  0.271607  0.811042  1
  O  O12  1  0.500009  0.187798  0.097193  1
  O  O13  1  0.499977  0.812208  0.902807  1
  O  O14  1  0.999896  0.771618  0.688958  1
  O  O15  1  0.500003  0.312188  0.597191  1
  O  O16  1  0.999978  0.000001  0.000003  1
  O  O17  1  0.499977  0.687789  0.402793  1
