# generated using pymatgen
data_MgV2O4
_symmetry_space_group_name_H-M   'P 1'
_cell_length_a   5.17611481
_cell_length_b   5.92979208
_cell_length_c   10.31466968
_cell_angle_alpha   89.94283775
_cell_angle_beta   89.98455213
_cell_angle_gamma   89.88983804
_symmetry_Int_Tables_number   1
_chemical_formula_structural   MgV2O4
_chemical_formula_sum   'Mg4 V8 O16'
_cell_volume   316.59033819
_cell_formula_units_Z   4
loop_
 _symmetry_equiv_pos_site_id
 _symmetry_equiv_pos_as_xyz
  1  'x, y, z'
loop_
 _atom_site_type_symbol
 _atom_site_label
 _atom_site_symmetry_multiplicity
 _atom_site_fract_x
 _atom_site_fract_y
 _atom_site_fract_z
 _atom_site_occupancy
  Mg  Mg0  1  0.844557  0.250354  0.749997  1
  Mg  Mg1  1  0.165700  0.749764  0.249939  1
  Mg  Mg2  1  0.514442  0.249891  0.250035  1
  Mg  Mg3  1  0.482403  0.750008  0.749931  1
  V  V4  1  0.517482  0.749680  0.485533  1
  V  V5  1  0.515804  0.749773  0.014277  1
  V  V6  1  0.483698  0.250047  0.514748  1
  V  V7  1  0.482299  0.250161  0.985308  1
  V  V8  1  0.000569  0.500181  0.499327  1
  V  V9  1  0.999105  0.999750  0.000731  1
  V  V10  1  0.000420  -0.000054  0.499063  1
  V  V11  1  0.998762  0.500183  0.001012  1
  O  O12  1  0.860935  0.749993  0.390152  1
  O  O13  1  0.859088  0.749898  0.109885  1
  O  O14  1  0.139709  0.249774  0.608556  1
  O  O15  1  0.138382  0.250427  0.891575  1
  O  O16  1  0.197147  0.749425  0.596038  1
  O  O17  1  0.195654  0.749666  0.903891  1
  O  O18  1  0.802537  0.251010  0.403279  1
  O  O19  1  0.800888  0.249958  0.096817  1
  O  O20  1  0.663839  0.504367  0.614853  1
  O  O21  1  0.662796  0.997138  0.885147  1
  O  O22  1  0.337372  0.002166  0.384910  1
  O  O23  1  0.336240  0.496477  0.115125  1
  O  O24  1  0.338335  0.495759  0.385325  1
  O  O25  1  0.336212  0.002745  0.114646  1
  O  O26  1  0.663574  0.997724  0.614478  1
  O  O27  1  0.662049  0.503735  0.885420  1
