# generated using pymatgen
data_NiF4
_symmetry_space_group_name_H-M   'P 1'
_cell_length_a   5.47290334
_cell_length_b   5.48024155
_cell_length_c   6.39092719
_cell_angle_alpha   115.99806707
_cell_angle_beta   115.46417397
_cell_angle_gamma   89.93157834
_symmetry_Int_Tables_number   1
_chemical_formula_structural   NiF4
_chemical_formula_sum   'Ni2 F8'
_cell_volume   151.35013927
_cell_formula_units_Z   2
loop_
 _symmetry_equiv_pos_site_id
 _symmetry_equiv_pos_as_xyz
  1  'x, y, z'
loop_
 _atom_site_type_symbol
 _atom_site_label
 _atom_site_symmetry_multiplicity
 _atom_site_fract_x
 _atom_site_fract_y
 _atom_site_fract_z
 _atom_site_occupancy
  Ni  Ni0  1  0.997269  0.499239  0.998697  1
  Ni  Ni1  1  0.499783  0.999818  0.998906  1
  F  F2  1  0.955780  0.454271  0.237579  1
  F  F3  1  0.711501  0.218022  0.755444  1
  F  F4  1  0.039484  0.543511  0.759715  1
  F  F5  1  0.217049  0.043434  0.759983  1
  F  F6  1  0.282912  0.780701  0.241874  1
  F  F7  1  0.458828  0.282248  0.241975  1
  F  F8  1  0.779652  0.952681  0.237626  1
  F  F9  1  0.542389  0.718712  0.755669  1
