# generated using pymatgen
data_MgV4O8
_symmetry_space_group_name_H-M   'P 1'
_cell_length_a   3.01135211
_cell_length_b   7.38621094
_cell_length_c   7.47276394
_cell_angle_alpha   79.55270952
_cell_angle_beta   78.36948057
_cell_angle_gamma   78.24255299
_symmetry_Int_Tables_number   1
_chemical_formula_structural   MgV4O8
_chemical_formula_sum   'Mg1 V4 O8'
_cell_volume   157.67043869
_cell_formula_units_Z   1
loop_
 _symmetry_equiv_pos_site_id
 _symmetry_equiv_pos_as_xyz
  1  'x, y, z'
loop_
 _atom_site_type_symbol
 _atom_site_label
 _atom_site_symmetry_multiplicity
 _atom_site_fract_x
 _atom_site_fract_y
 _atom_site_fract_z
 _atom_site_occupancy
  Mg  Mg0  1  0.336283  0.136925  0.202524  1
  V  V1  1  0.633179  0.176582  0.568792  1
  V  V2  1  0.149773  0.513445  0.199370  1
  V  V3  1  0.846896  0.483620  0.834504  1
  V  V4  1  0.357851  0.805550  0.490648  1
  O  O5  1  0.863435  0.666796  0.618562  1
  O  O6  1  0.470846  0.321997  0.748084  1
  O  O7  1  0.542600  0.641191  0.285995  1
  O  O8  1  0.149274  0.304158  0.409228  1
  O  O9  1  0.174966  0.014020  0.647760  1
  O  O10  1  0.791426  0.328822  0.100335  1
  O  O11  1  0.840934  0.985921  0.344052  1
  O  O12  1  0.220701  0.611610  0.958939  1
