# generated using pymatgen
data_MgWF5
_symmetry_space_group_name_H-M   'P 1'
_cell_length_a   5.26121522
_cell_length_b   7.91131399
_cell_length_c   10.36793002
_cell_angle_alpha   90.00000000
_cell_angle_beta   90.00000000
_cell_angle_gamma   108.39990743
_symmetry_Int_Tables_number   1
_chemical_formula_structural   MgWF5
_chemical_formula_sum   'Mg4 W4 F20'
_cell_volume   409.48353792
_cell_formula_units_Z   4
loop_
 _symmetry_equiv_pos_site_id
 _symmetry_equiv_pos_as_xyz
  1  'x, y, z'
loop_
 _atom_site_type_symbol
 _atom_site_label
 _atom_site_symmetry_multiplicity
 _atom_site_fract_x
 _atom_site_fract_y
 _atom_site_fract_z
 _atom_site_occupancy
  Mg  Mg0  1  0.493427  0.793826  0.000783  1
  Mg  Mg1  1  0.506573  0.706174  0.500783  1
  Mg  Mg2  1  0.506573  0.206174  0.999217  1
  Mg  Mg3  1  0.493427  0.293826  0.499217  1
  W  W4  1  0.908304  0.633447  0.758189  1
  W  W5  1  0.091696  0.866553  0.258189  1
  W  W6  1  0.091696  0.366553  0.241811  1
  W  W7  1  0.908304  0.133447  0.741811  1
  F  F8  1  0.600780  0.627965  0.890480  1
  F  F9  1  0.399220  0.872035  0.390480  1
  F  F10  1  0.399220  0.372035  0.109520  1
  F  F11  1  0.600780  0.127965  0.609520  1
  F  F12  1  0.647886  0.520711  0.600798  1
  F  F13  1  0.352114  0.979289  0.100798  1
  F  F14  1  0.352114  0.479289  0.399202  1
  F  F15  1  0.647886  0.020711  0.899202  1
  F  F16  1  0.845092  0.761452  0.413311  1
  F  F17  1  0.154908  0.738548  0.913311  1
  F  F18  1  0.154908  0.238548  0.586689  1
  F  F19  1  0.845092  0.261452  0.086689  1
  F  F20  1  0.763144  0.834917  0.134452  1
  F  F21  1  0.236856  0.665083  0.634452  1
  F  F22  1  0.236856  0.165083  0.865548  1
  F  F23  1  0.763144  0.334917  0.365548  1
  F  F24  1  0.869443  0.871449  0.673863  1
  F  F25  1  0.130557  0.628551  0.173863  1
  F  F26  1  0.130557  0.128551  0.326137  1
  F  F27  1  0.869443  0.371449  0.826137  1
