# generated using pymatgen
data_MgNiO2
_symmetry_space_group_name_H-M   'P 1'
_cell_length_a   2.93392042
_cell_length_b   8.15450604
_cell_length_c   8.14838651
_cell_angle_alpha   89.40250913
_cell_angle_beta   79.66726006
_cell_angle_gamma   79.42317907
_symmetry_Int_Tables_number   1
_chemical_formula_structural   MgNiO2
_chemical_formula_sum   'Mg4 Ni4 O8'
_cell_volume   188.47643822
_cell_formula_units_Z   4
loop_
 _symmetry_equiv_pos_site_id
 _symmetry_equiv_pos_as_xyz
  1  'x, y, z'
loop_
 _atom_site_type_symbol
 _atom_site_label
 _atom_site_symmetry_multiplicity
 _atom_site_fract_x
 _atom_site_fract_y
 _atom_site_fract_z
 _atom_site_occupancy
  Mg  Mg0  1  0.335824  0.083036  0.260194  1
  Mg  Mg1  1  0.668522  0.896294  0.767631  1
  Mg  Mg2  1  0.077844  0.718767  0.123289  1
  Mg  Mg3  1  0.916681  0.260391  0.904411  1
  Ni  Ni4  1  0.596285  0.214536  0.599673  1
  Ni  Ni5  1  0.178034  0.402279  0.249874  1
  Ni  Ni6  1  0.815949  0.576909  0.777486  1
  Ni  Ni7  1  0.400475  0.764913  0.427933  1
  O  O8  1  0.844319  0.722559  0.581482  1
  O  O9  1  0.400523  0.391833  0.799972  1
  O  O10  1  0.593964  0.587392  0.227769  1
  O  O11  1  0.151906  0.257036  0.446191  1
  O  O12  1  0.090486  0.071581  0.743880  1
  O  O13  1  0.814896  0.235144  0.143627  1
  O  O14  1  0.913154  0.907758  0.283595  1
  O  O15  1  0.185441  0.744113  0.884077  1
