# generated using pymatgen
data_MnO2
_symmetry_space_group_name_H-M   'P 1'
_cell_length_a   5.79956590
_cell_length_b   9.59005958
_cell_length_c   9.42756761
_cell_angle_alpha   90.00000000
_cell_angle_beta   90.00000000
_cell_angle_gamma   90.00000000
_symmetry_Int_Tables_number   1
_chemical_formula_structural   MnO2
_chemical_formula_sum   'Mn16 O32'
_cell_volume   524.34417604
_cell_formula_units_Z   16
loop_
 _symmetry_equiv_pos_site_id
 _symmetry_equiv_pos_as_xyz
  1  'x, y, z'
loop_
 _atom_site_type_symbol
 _atom_site_label
 _atom_site_symmetry_multiplicity
 _atom_site_fract_x
 _atom_site_fract_y
 _atom_site_fract_z
 _atom_site_occupancy
  Mn  Mn0  1  0.124518  0.576228  0.384927  1
  Mn  Mn1  1  0.624518  0.076228  0.115073  1
  Mn  Mn2  1  0.375482  0.076228  0.615073  1
  Mn  Mn3  1  0.624518  0.423772  0.115073  1
  Mn  Mn4  1  0.875482  0.076228  0.615073  1
  Mn  Mn5  1  0.875482  0.423772  0.615073  1
  Mn  Mn6  1  0.375482  0.423772  0.615073  1
  Mn  Mn7  1  0.624518  0.923772  0.384927  1
  Mn  Mn8  1  0.124518  0.423772  0.115073  1
  Mn  Mn9  1  0.624518  0.576228  0.384927  1
  Mn  Mn10  1  0.375482  0.923772  0.884927  1
  Mn  Mn11  1  0.124518  0.076228  0.115073  1
  Mn  Mn12  1  0.875482  0.576228  0.884927  1
  Mn  Mn13  1  0.124518  0.923772  0.384927  1
  Mn  Mn14  1  0.875482  0.923772  0.884927  1
  Mn  Mn15  1  0.375482  0.576228  0.884927  1
  O  O16  1  0.374634  0.891760  0.512310  1
  O  O17  1  0.874634  0.891760  0.512310  1
  O  O18  1  0.625366  0.108240  0.487690  1
  O  O19  1  0.374764  0.000000  0.250000  1
  O  O20  1  0.125366  0.891760  0.012310  1
  O  O21  1  0.625366  0.891760  0.012310  1
  O  O22  1  0.125366  0.608240  0.012310  1
  O  O23  1  0.120261  0.250000  0.197628  1
  O  O24  1  0.874634  0.108240  0.987690  1
  O  O25  1  0.379739  0.250000  0.697628  1
  O  O26  1  0.879739  0.250000  0.697628  1
  O  O27  1  0.374764  0.500000  0.250000  1
  O  O28  1  0.625236  0.000000  0.750000  1
  O  O29  1  0.625366  0.608240  0.012310  1
  O  O30  1  0.374634  0.608240  0.512310  1
  O  O31  1  0.874764  0.000000  0.250000  1
  O  O32  1  0.879739  0.750000  0.802372  1
  O  O33  1  0.374634  0.108240  0.987690  1
  O  O34  1  0.120261  0.750000  0.302372  1
  O  O35  1  0.125236  0.500000  0.750000  1
  O  O36  1  0.620261  0.750000  0.302372  1
  O  O37  1  0.379739  0.750000  0.802372  1
  O  O38  1  0.374634  0.391761  0.987690  1
  O  O39  1  0.125366  0.108240  0.487690  1
  O  O40  1  0.874634  0.391761  0.987690  1
  O  O41  1  0.874764  0.500000  0.250000  1
  O  O42  1  0.625236  0.500000  0.750000  1
  O  O43  1  0.125366  0.391761  0.487690  1
  O  O44  1  0.125236  0.000000  0.750000  1
  O  O45  1  0.874634  0.608240  0.512310  1
  O  O46  1  0.625366  0.391761  0.487690  1
  O  O47  1  0.620261  0.250000  0.197628  1
