# generated using pymatgen
data_NiS2
_symmetry_space_group_name_H-M   'P 1'
_cell_length_a   7.34976982
_cell_length_b   7.34976995
_cell_length_c   7.34976972
_cell_angle_alpha   26.29104612
_cell_angle_beta   26.29105149
_cell_angle_gamma   26.29105208
_symmetry_Int_Tables_number   1
_chemical_formula_structural   NiS2
_chemical_formula_sum   'Ni1 S2'
_cell_volume   68.63919624
_cell_formula_units_Z   1
loop_
 _symmetry_equiv_pos_site_id
 _symmetry_equiv_pos_as_xyz
  1  'x, y, z'
loop_
 _atom_site_type_symbol
 _atom_site_label
 _atom_site_symmetry_multiplicity
 _atom_site_fract_x
 _atom_site_fract_y
 _atom_site_fract_z
 _atom_site_occupancy
  Ni  Ni0  1  0.000000  0.000000  0.000000  1
  S  S1  1  0.611148  0.611148  0.611148  1
  S  S2  1  0.388852  0.388852  0.388852  1
