# generated using pymatgen
data_Fe3(AsO4)4
_symmetry_space_group_name_H-M   'P 1'
_cell_length_a   4.99892522
_cell_length_b   9.53397089
_cell_length_c   14.80842110
_cell_angle_alpha   102.92177126
_cell_angle_beta   90.00000000
_cell_angle_gamma   90.00000000
_symmetry_Int_Tables_number   1
_chemical_formula_structural   Fe3(AsO4)4
_chemical_formula_sum   'Fe6 As8 O32'
_cell_volume   687.89098905
_cell_formula_units_Z   2
loop_
 _symmetry_equiv_pos_site_id
 _symmetry_equiv_pos_as_xyz
  1  'x, y, z'
loop_
 _atom_site_type_symbol
 _atom_site_label
 _atom_site_symmetry_multiplicity
 _atom_site_fract_x
 _atom_site_fract_y
 _atom_site_fract_z
 _atom_site_occupancy
  Fe  Fe0  1  0.041562  0.328414  0.128131  1
  Fe  Fe1  1  0.958438  0.671586  0.871869  1
  Fe  Fe2  1  0.541562  0.171586  0.371869  1
  Fe  Fe3  1  0.458438  0.828414  0.628131  1
  Fe  Fe4  1  0.500000  0.500000  0.000000  1
  Fe  Fe5  1  -0.000000  0.000000  0.500000  1
  As  As6  1  0.446257  0.890309  0.855803  1
  As  As7  1  0.055074  0.347399  0.896306  1
  As  As8  1  0.555074  0.152601  0.603694  1
  As  As9  1  0.444926  0.847399  0.396306  1
  As  As10  1  0.553743  0.109691  0.144197  1
  As  As11  1  0.944926  0.652601  0.103694  1
  As  As12  1  0.053743  0.390309  0.355803  1
  As  As13  1  0.946257  0.609691  0.644197  1
  O  O14  1  -0.007090  0.554600  0.745650  1
  O  O15  1  0.716250  0.172687  0.501463  1
  O  O16  1  0.129418  0.215696  0.802381  1
  O  O17  1  0.103939  0.772344  0.654874  1
  O  O18  1  0.870582  0.784304  0.197619  1
  O  O19  1  0.507090  0.054600  0.245650  1
  O  O20  1  0.629418  0.284304  0.697619  1
  O  O21  1  0.782977  0.874671  0.405522  1
  O  O22  1  0.922806  0.528527  0.442097  1
  O  O23  1  0.007090  0.445400  0.254350  1
  O  O24  1  0.396061  0.272344  0.154874  1
  O  O25  1  0.217023  0.125329  0.594478  1
  O  O26  1  0.213034  0.517039  0.900790  1
  O  O27  1  0.077194  0.471473  0.557903  1
  O  O28  1  0.878606  0.145257  0.117489  1
  O  O29  1  0.378606  0.354743  0.382511  1
  O  O30  1  0.713034  0.982961  0.599210  1
  O  O31  1  0.370582  0.715696  0.302381  1
  O  O32  1  0.422806  0.971473  0.057903  1
  O  O33  1  0.282977  0.625329  0.094478  1
  O  O34  1  0.621394  0.645257  0.617489  1
  O  O35  1  0.121394  0.854743  0.882511  1
  O  O36  1  0.283750  0.827313  0.498537  1
  O  O37  1  0.216250  0.327313  0.998537  1
  O  O38  1  0.786966  0.482961  0.099210  1
  O  O39  1  0.492910  0.945400  0.754350  1
  O  O40  1  0.896061  0.227656  0.345126  1
  O  O41  1  0.577194  0.028527  0.942097  1
  O  O42  1  0.783750  0.672687  0.001463  1
  O  O43  1  0.717023  0.374671  0.905522  1
  O  O44  1  0.286966  0.017039  0.400790  1
  O  O45  1  0.603939  0.727656  0.845126  1
