# generated using pymatgen
data_CoO2
_symmetry_space_group_name_H-M   'P 1'
_cell_length_a   5.69530836
_cell_length_b   5.66874187
_cell_length_c   22.58462383
_cell_angle_alpha   59.86518150
_cell_angle_beta   60.28920163
_cell_angle_gamma   60.15389591
_symmetry_Int_Tables_number   1
_chemical_formula_structural   CoO2
_chemical_formula_sum   'Co16 O32'
_cell_volume   516.77253880
_cell_formula_units_Z   16
loop_
 _symmetry_equiv_pos_site_id
 _symmetry_equiv_pos_as_xyz
  1  'x, y, z'
loop_
 _atom_site_type_symbol
 _atom_site_label
 _atom_site_symmetry_multiplicity
 _atom_site_fract_x
 _atom_site_fract_y
 _atom_site_fract_z
 _atom_site_occupancy
  Co  Co0  1  0.496000  0.494842  0.124820  1
  Co  Co1  1  0.498246  0.492814  0.254034  1
  Co  Co2  1  0.495968  0.009956  0.124821  1
  Co  Co3  1  0.132729  0.113796  0.534903  1
  Co  Co4  1  0.499732  0.494719  0.377359  1
  Co  Co5  1  0.868416  0.873763  0.220939  1
  Co  Co6  1  0.130856  0.120080  0.782215  1
  Co  Co7  1  0.499777  0.995926  0.377354  1
  Co  Co8  1  0.503808  0.497785  0.624635  1
  Co  Co9  1  0.869265  0.881316  0.467085  1
  Co  Co10  1  0.503813  -0.000101  0.624630  1
  Co  Co11  1  0.497981  0.011538  0.872237  1
  Co  Co12  1  0.497982  0.501475  0.872247  1
  Co  Co13  1  0.871074  0.883477  0.715509  1
  Co  Co14  1  0.495604  0.497386  0.002434  1
  Co  Co15  1  0.861332  0.877713  0.970802  1
  O  O16  1  0.295394  0.251528  0.062672  1
  O  O17  1  0.290366  0.252777  0.176061  1
  O  O18  1  0.295627  0.702662  0.062631  1
  O  O19  1  0.713895  0.261374  0.065860  1
  O  O20  1  0.277315  0.738482  0.186442  1
  O  O21  1  0.294788  0.249227  0.315432  1
  O  O22  1  0.704485  0.273118  0.191422  1
  O  O23  1  0.276324  0.242221  0.434770  1
  O  O24  1  0.294980  0.694549  0.315345  1
  O  O25  1  0.713337  0.753952  0.069719  1
  O  O26  1  0.705770  0.258171  0.319463  1
  O  O27  1  0.704728  0.756536  0.191336  1
  O  O28  1  0.270879  0.221370  0.567666  1
  O  O29  1  0.276520  0.757309  0.427166  1
  O  O30  1  0.735619  0.260001  0.432609  1
  O  O31  1  0.282677  0.249814  0.679420  1
  O  O32  1  0.270906  0.737012  0.567662  1
  O  O33  1  0.718204  0.749805  0.320569  1
  O  O34  1  0.724099  0.251240  0.568360  1
  O  O35  1  0.735363  0.774068  0.432631  1
  O  O36  1  0.280895  0.748682  0.680442  1
  O  O37  1  0.266285  0.229940  0.814710  1
  O  O38  1  0.735531  0.260902  0.681504  1
  O  O39  1  0.286458  0.265276  0.920728  1
  O  O40  1  0.266320  0.744831  0.814703  1
  O  O41  1  0.723276  0.750789  0.568766  1
  O  O42  1  0.731552  0.248903  0.817652  1
  O  O43  1  0.735543  0.777597  0.681496  1
  O  O44  1  0.277867  0.742787  0.934147  1
  O  O45  1  0.702203  0.277973  0.937825  1
  O  O46  1  0.715415  0.759045  0.816614  1
  O  O47  1  0.702426  0.768513  0.937772  1
