# generated using pymatgen
data_NiO2
_symmetry_space_group_name_H-M   'P 1'
_cell_length_a   5.63301506
_cell_length_b   5.63808729
_cell_length_c   16.93582311
_cell_angle_alpha   60.00291817
_cell_angle_beta   60.09517916
_cell_angle_gamma   59.98128802
_symmetry_Int_Tables_number   1
_chemical_formula_structural   NiO2
_chemical_formula_sum   'Ni12 O24'
_cell_volume   380.56030495
_cell_formula_units_Z   12
loop_
 _symmetry_equiv_pos_site_id
 _symmetry_equiv_pos_as_xyz
  1  'x, y, z'
loop_
 _atom_site_type_symbol
 _atom_site_label
 _atom_site_symmetry_multiplicity
 _atom_site_fract_x
 _atom_site_fract_y
 _atom_site_fract_z
 _atom_site_occupancy
  Ni  Ni0  1  0.496533  0.496321  0.169202  1
  Ni  Ni1  1  0.000301  0.500746  0.499679  1
  Ni  Ni2  1  0.500378  0.497884  0.334082  1
  Ni  Ni3  1  0.496380  -0.001216  0.169302  1
  Ni  Ni4  1  0.500627  0.500643  0.499743  1
  Ni  Ni5  1  -0.000251  0.495928  0.169173  1
  Ni  Ni6  1  0.500581  0.502959  0.665714  1
  Ni  Ni7  1  0.500680  0.000351  0.499663  1
  Ni  Ni8  1  0.501522  0.501810  0.831733  1
  Ni  Ni9  1  0.501588  0.002112  0.831421  1
  Ni  Ni10  1  0.001398  0.501820  0.831584  1
  Ni  Ni11  1  0.882175  0.880208  0.951173  1
  O  O12  1  0.242333  0.242336  0.100388  1
  O  O13  1  0.242888  0.713261  0.100199  1
  O  O14  1  0.262070  0.261064  0.238472  1
  O  O15  1  0.709713  0.245889  0.099403  1
  O  O16  1  0.264359  0.264482  0.421763  1
  O  O17  1  0.293709  0.733250  0.246216  1
  O  O18  1  0.737064  0.737019  0.096249  1
  O  O19  1  0.735869  0.291753  0.245983  1
  O  O20  1  0.265768  0.704997  0.421277  1
  O  O21  1  0.265965  0.265196  0.567949  1
  O  O22  1  0.706402  0.264078  0.421921  1
  O  O23  1  0.735758  0.733059  0.246016  1
  O  O24  1  0.266324  0.268394  0.752662  1
  O  O25  1  0.295263  0.736990  0.577460  1
  O  O26  1  0.735302  0.736047  0.431162  1
  O  O27  1  0.735243  0.296775  0.578113  1
  O  O28  1  0.267547  0.267062  0.899287  1
  O  O29  1  0.265209  0.709335  0.753303  1
  O  O30  1  0.707763  0.267321  0.753137  1
  O  O31  1  0.736619  0.736785  0.577460  1
  O  O32  1  0.288624  0.750669  0.903309  1
  O  O33  1  0.751578  0.287169  0.903252  1
  O  O34  1  0.735506  0.736537  0.763844  1
  O  O35  1  0.749610  0.749370  0.903607  1
