# generated using pymatgen
data_MgCr2O4
_symmetry_space_group_name_H-M   'P 1'
_cell_length_a   2.97227978
_cell_length_b   7.41310673
_cell_length_c   7.46534974
_cell_angle_alpha   78.37238954
_cell_angle_beta   78.51893324
_cell_angle_gamma   78.43526446
_symmetry_Int_Tables_number   1
_chemical_formula_structural   MgCr2O4
_chemical_formula_sum   'Mg2 Cr4 O8'
_cell_volume   155.67189286
_cell_formula_units_Z   2
loop_
 _symmetry_equiv_pos_site_id
 _symmetry_equiv_pos_as_xyz
  1  'x, y, z'
loop_
 _atom_site_type_symbol
 _atom_site_label
 _atom_site_symmetry_multiplicity
 _atom_site_fract_x
 _atom_site_fract_y
 _atom_site_fract_z
 _atom_site_occupancy
  Mg  Mg0  1  0.319877  0.151340  0.209065  1
  Mg  Mg1  1  0.675719  0.825612  0.823168  1
  Cr  Cr2  1  0.632050  0.174346  0.561635  1
  Cr  Cr3  1  0.142070  0.516308  0.199604  1
  Cr  Cr4  1  0.853207  0.460802  0.832894  1
  Cr  Cr5  1  0.363378  0.802776  0.470533  1
  O  O6  1  0.858821  0.670958  0.611500  1
  O  O7  1  0.460071  0.307184  0.772714  1
  O  O8  1  0.535390  0.669750  0.259584  1
  O  O9  1  0.136633  0.306110  0.420681  1
  O  O10  1  0.165760  0.986380  0.682303  1
  O  O11  1  0.779928  0.338272  0.102019  1
  O  O12  1  0.829875  0.990573  0.349799  1
  O  O13  1  0.215496  0.638924  0.930118  1
