# generated using pymatgen
data_TiP2O7
_symmetry_space_group_name_H-M   'P 1'
_cell_length_a   6.90017617
_cell_length_b   8.69302728
_cell_length_c   9.62651549
_cell_angle_alpha   90.00000000
_cell_angle_beta   74.11222067
_cell_angle_gamma   90.00000000
_symmetry_Int_Tables_number   1
_chemical_formula_structural   TiP2O7
_chemical_formula_sum   'Ti4 P8 O28'
_cell_volume   555.37328139
_cell_formula_units_Z   4
loop_
 _symmetry_equiv_pos_site_id
 _symmetry_equiv_pos_as_xyz
  1  'x, y, z'
loop_
 _atom_site_type_symbol
 _atom_site_label
 _atom_site_symmetry_multiplicity
 _atom_site_fract_x
 _atom_site_fract_y
 _atom_site_fract_z
 _atom_site_occupancy
  Ti  Ti0  1  0.701202  0.077749  0.200171  1
  Ti  Ti1  1  0.701202  0.422251  0.700171  1
  Ti  Ti2  1  0.298798  0.577749  0.299829  1
  Ti  Ti3  1  0.298798  0.922251  0.799829  1
  P  P4  1  0.526300  0.717116  0.536931  1
  P  P5  1  0.106350  0.249136  0.232351  1
  P  P6  1  0.893650  0.749136  0.267649  1
  P  P7  1  0.106350  0.250864  0.732351  1
  P  P8  1  0.526300  0.782884  0.036931  1
  P  P9  1  0.893650  0.750864  0.767649  1
  P  P10  1  0.473700  0.217116  0.963069  1
  P  P11  1  0.473700  0.282884  0.463069  1
  O  O12  1  0.532630  0.128189  0.378868  1
  O  O13  1  0.259418  0.237274  0.069655  1
  O  O14  1  0.899344  0.272051  0.697468  1
  O  O15  1  0.123369  0.077029  0.771456  1
  O  O16  1  0.467370  0.871811  0.621132  1
  O  O17  1  0.740582  0.762726  0.930345  1
  O  O18  1  0.629655  0.191221  0.047961  1
  O  O19  1  0.537403  0.910796  0.142384  1
  O  O20  1  0.876631  0.577029  0.728544  1
  O  O21  1  0.370345  0.691221  0.452039  1
  O  O22  1  0.532630  0.371811  0.878868  1
  O  O23  1  0.847389  0.862656  0.667429  1
  O  O24  1  0.467370  0.628189  0.121132  1
  O  O25  1  0.100656  0.727949  0.302532  1
  O  O26  1  0.462597  0.410796  0.357616  1
  O  O27  1  0.370345  0.808779  0.952039  1
  O  O28  1  0.876631  0.922971  0.228544  1
  O  O29  1  0.899344  0.227949  0.197468  1
  O  O30  1  0.152611  0.137344  0.332571  1
  O  O31  1  0.537403  0.589204  0.642384  1
  O  O32  1  0.259418  0.262726  0.569655  1
  O  O33  1  0.629655  0.308779  0.547961  1
  O  O34  1  0.462597  0.089204  0.857616  1
  O  O35  1  0.123369  0.422971  0.271456  1
  O  O36  1  0.740582  0.737274  0.430345  1
  O  O37  1  0.847389  0.637344  0.167429  1
  O  O38  1  0.100656  0.772051  0.802532  1
  O  O39  1  0.152611  0.362656  0.832571  1
