# generated using pymatgen
data_BiO2
_symmetry_space_group_name_H-M   'P 1'
_cell_length_a   3.44719210
_cell_length_b   10.59486640
_cell_length_c   12.03641205
_cell_angle_alpha   90.00703549
_cell_angle_beta   90.00003545
_cell_angle_gamma   90.00004997
_symmetry_Int_Tables_number   1
_chemical_formula_structural   BiO2
_chemical_formula_sum   'Bi8 O16'
_cell_volume   439.60033444
_cell_formula_units_Z   8
loop_
 _symmetry_equiv_pos_site_id
 _symmetry_equiv_pos_as_xyz
  1  'x, y, z'
loop_
 _atom_site_type_symbol
 _atom_site_label
 _atom_site_symmetry_multiplicity
 _atom_site_fract_x
 _atom_site_fract_y
 _atom_site_fract_z
 _atom_site_occupancy
  Bi  Bi0  1  0.249999  0.398724  0.093687  1
  Bi  Bi1  1  0.750000  0.101129  0.590269  1
  Bi  Bi2  1  0.250000  0.898768  0.406305  1
  Bi  Bi3  1  0.750000  0.601098  0.909776  1
  Bi  Bi4  1  0.749999  0.551235  0.387348  1
  Bi  Bi5  1  0.250000  0.458730  0.630074  1
  Bi  Bi6  1  0.750000  0.051197  0.112645  1
  Bi  Bi7  1  0.250000  0.958684  0.869896  1
  O  O8  1  0.249999  0.926355  0.046573  1
  O  O9  1  0.750000  0.078233  0.922608  1
  O  O10  1  0.249999  0.426420  0.453407  1
  O  O11  1  0.750000  0.578287  0.577406  1
  O  O12  1  0.250000  0.035732  0.708870  1
  O  O13  1  0.749999  0.925503  0.294191  1
  O  O14  1  0.249999  0.535756  0.791154  1
  O  O15  1  0.749999  0.425490  0.205802  1
  O  O16  1  0.250000  0.593019  0.039414  1
  O  O17  1  0.749999  0.397597  0.975080  1
  O  O18  1  0.250000  0.093060  0.460623  1
  O  O19  1  0.749999  0.897639  0.524904  1
  O  O20  1  0.749999  0.831581  0.844723  1
  O  O21  1  0.250000  0.202047  0.111359  1
  O  O22  1  0.250000  0.702073  0.388643  1
  O  O23  1  0.749999  0.331643  0.655246  1
