# generated using pymatgen
data_Cr2(GeO4)3
_symmetry_space_group_name_H-M   'P 1'
_cell_length_a   10.33455055
_cell_length_b   10.33455021
_cell_length_c   10.33454994
_cell_angle_alpha   109.47121835
_cell_angle_beta   109.47121767
_cell_angle_gamma   109.47122176
_symmetry_Int_Tables_number   1
_chemical_formula_structural   Cr2(GeO4)3
_chemical_formula_sum   'Cr8 Ge12 O48'
_cell_volume   849.67506412
_cell_formula_units_Z   4
loop_
 _symmetry_equiv_pos_site_id
 _symmetry_equiv_pos_as_xyz
  1  'x, y, z'
loop_
 _atom_site_type_symbol
 _atom_site_label
 _atom_site_symmetry_multiplicity
 _atom_site_fract_x
 _atom_site_fract_y
 _atom_site_fract_z
 _atom_site_occupancy
  Cr  Cr0  1  0.500000  0.500000  0.500000  1
  Cr  Cr1  1  0.500000  0.500000  0.000000  1
  Cr  Cr2  1  0.500000  0.000000  0.500000  1
  Cr  Cr3  1  0.000000  0.500000  0.500000  1
  Cr  Cr4  1  0.500000  0.000000  0.000000  1
  Cr  Cr5  1  0.000000  0.000000  0.500000  1
  Cr  Cr6  1  0.000000  0.500000  0.000000  1
  Cr  Cr7  1  0.000000  0.000000  0.000000  1
  Ge  Ge8  1  0.875000  0.125000  0.750000  1
  Ge  Ge9  1  0.125000  0.875000  0.250000  1
  Ge  Ge10  1  0.250000  0.625000  0.375000  1
  Ge  Ge11  1  0.125000  0.750000  0.875000  1
  Ge  Ge12  1  0.750000  0.875000  0.125000  1
  Ge  Ge13  1  0.375000  0.250000  0.625000  1
  Ge  Ge14  1  0.625000  0.750000  0.375000  1
  Ge  Ge15  1  0.875000  0.250000  0.125000  1
  Ge  Ge16  1  0.250000  0.125000  0.875000  1
  Ge  Ge17  1  0.750000  0.375000  0.625000  1
  Ge  Ge18  1  0.375000  0.625000  0.750000  1
  Ge  Ge19  1  0.625000  0.375000  0.250000  1
  O  O20  1  0.808071  0.413024  0.822028  1
  O  O21  1  0.086976  0.895047  0.409004  1
  O  O22  1  0.677972  0.090996  0.986042  1
  O  O23  1  0.691929  0.513958  0.604953  1
  O  O24  1  0.691929  0.677972  0.086976  1
  O  O25  1  0.513958  0.604953  0.691929  1
  O  O26  1  0.090996  0.604953  0.413024  1
  O  O27  1  0.604953  0.691929  0.513958  1
  O  O28  1  0.409004  0.822028  0.513958  1
  O  O29  1  0.895047  0.986042  0.808071  1
  O  O30  1  0.986042  0.808071  0.895047  1
  O  O31  1  0.086976  0.691929  0.677972  1
  O  O32  1  0.604953  0.413024  0.090996  1
  O  O33  1  0.513958  0.409004  0.822028  1
  O  O34  1  0.677972  0.086976  0.691929  1
  O  O35  1  0.413024  0.090996  0.604953  1
  O  O36  1  0.822028  0.513958  0.409004  1
  O  O37  1  0.409004  0.086976  0.895047  1
  O  O38  1  0.090996  0.986042  0.677972  1
  O  O39  1  0.590996  0.177972  0.486042  1
  O  O40  1  0.986042  0.677972  0.090996  1
  O  O41  1  0.822028  0.808071  0.413024  1
  O  O42  1  0.895047  0.409004  0.086976  1
  O  O43  1  0.808071  0.895047  0.986042  1
  O  O44  1  0.191929  0.586976  0.177972  1
  O  O45  1  0.913024  0.104953  0.590996  1
  O  O46  1  0.322028  0.909004  0.013958  1
  O  O47  1  0.308071  0.486042  0.395047  1
  O  O48  1  0.308071  0.322028  0.913024  1
  O  O49  1  0.486042  0.395047  0.308071  1
  O  O50  1  0.909004  0.395047  0.586976  1
  O  O51  1  0.395047  0.308071  0.486042  1
  O  O52  1  0.191929  0.104953  0.013958  1
  O  O53  1  0.104953  0.590996  0.913024  1
  O  O54  1  0.177972  0.191929  0.586976  1
  O  O55  1  0.586976  0.177972  0.191929  1
  O  O56  1  0.013958  0.322028  0.909004  1
  O  O57  1  0.909004  0.013958  0.322028  1
  O  O58  1  0.590996  0.913024  0.104953  1
  O  O59  1  0.177972  0.486042  0.590996  1
  O  O60  1  0.586976  0.909004  0.395047  1
  O  O61  1  0.322028  0.913024  0.308071  1
  O  O62  1  0.486042  0.590996  0.177972  1
  O  O63  1  0.395047  0.586976  0.909004  1
  O  O64  1  0.913024  0.308071  0.322028  1
  O  O65  1  0.013958  0.191929  0.104953  1
  O  O66  1  0.104953  0.013958  0.191929  1
  O  O67  1  0.413024  0.822028  0.808071  1
