# generated using pymatgen
data_Mg(NiS2)4
_symmetry_space_group_name_H-M   'P 1'
_cell_length_a   7.05904758
_cell_length_b   7.05904736
_cell_length_c   7.05904845
_cell_angle_alpha   57.11276126
_cell_angle_beta   57.11275590
_cell_angle_gamma   57.11276220
_symmetry_Int_Tables_number   1
_chemical_formula_structural   Mg(NiS2)4
_chemical_formula_sum   'Mg1 Ni4 S8'
_cell_volume   232.17798143
_cell_formula_units_Z   1
loop_
 _symmetry_equiv_pos_site_id
 _symmetry_equiv_pos_as_xyz
  1  'x, y, z'
loop_
 _atom_site_type_symbol
 _atom_site_label
 _atom_site_symmetry_multiplicity
 _atom_site_fract_x
 _atom_site_fract_y
 _atom_site_fract_z
 _atom_site_occupancy
  Mg  Mg0  1  0.500000  0.500001  0.499999  1
  Ni  Ni1  1  0.500001  0.999999  0.500001  1
  Ni  Ni2  1  0.999999  0.500000  0.500001  1
  Ni  Ni3  1  0.500000  0.500000  0.000000  1
  Ni  Ni4  1  0.000000  0.000000  0.000000  1
  S  S5  1  0.760512  0.274175  0.760512  1
  S  S6  1  0.239487  0.239488  0.725825  1
  S  S7  1  0.239487  0.725826  0.239487  1
  S  S8  1  0.725824  0.239488  0.239488  1
  S  S9  1  0.266775  0.266776  0.266775  1
  S  S10  1  0.733225  0.733225  0.733225  1
  S  S11  1  0.274176  0.760513  0.760512  1
  S  S12  1  0.760513  0.760513  0.274175  1
