# generated using pymatgen
data_VO2
_symmetry_space_group_name_H-M   'P 1'
_cell_length_a   5.86733614
_cell_length_b   5.91960434
_cell_length_c   5.91960405
_cell_angle_alpha   59.99999574
_cell_angle_beta   59.70487286
_cell_angle_gamma   59.70487796
_symmetry_Int_Tables_number   1
_chemical_formula_structural   VO2
_chemical_formula_sum   'V4 O8'
_cell_volume   144.73031946
_cell_formula_units_Z   4
loop_
 _symmetry_equiv_pos_site_id
 _symmetry_equiv_pos_as_xyz
  1  'x, y, z'
loop_
 _atom_site_type_symbol
 _atom_site_label
 _atom_site_symmetry_multiplicity
 _atom_site_fract_x
 _atom_site_fract_y
 _atom_site_fract_z
 _atom_site_occupancy
  V  V0  1  0.268073  0.243976  0.243976  1
  V  V1  1  0.637011  0.100638  0.631175  1
  V  V2  1  0.637011  0.631175  0.100637  1
  V  V3  1  0.637011  0.631175  0.631175  1
  O  O4  1  0.401013  0.366161  0.366161  1
  O  O5  1  0.401013  0.366161  0.866665  1
  O  O6  1  0.401013  0.866665  0.366161  1
  O  O7  1  0.861991  0.379336  0.379336  1
  O  O8  1  0.403017  0.865660  0.865660  1
  O  O9  1  0.828400  0.413520  0.879040  1
  O  O10  1  0.828400  0.879040  0.413520  1
  O  O11  1  0.828400  0.879040  0.879040  1
