# generated using pymatgen
data_MgNiO2
_symmetry_space_group_name_H-M   'P 1'
_cell_length_a   2.88720816
_cell_length_b   8.41620098
_cell_length_c   8.15510862
_cell_angle_alpha   83.25885676
_cell_angle_beta   79.54977302
_cell_angle_gamma   80.06315952
_symmetry_Int_Tables_number   1
_chemical_formula_structural   MgNiO2
_chemical_formula_sum   'Mg4 Ni4 O8'
_cell_volume   191.19372474
_cell_formula_units_Z   4
loop_
 _symmetry_equiv_pos_site_id
 _symmetry_equiv_pos_as_xyz
  1  'x, y, z'
loop_
 _atom_site_type_symbol
 _atom_site_label
 _atom_site_symmetry_multiplicity
 _atom_site_fract_x
 _atom_site_fract_y
 _atom_site_fract_z
 _atom_site_occupancy
  Mg  Mg0  1  0.353121  0.061827  0.242070  1
  Mg  Mg1  1  0.642931  0.918106  0.786120  1
  Mg  Mg2  1  0.078800  0.699142  0.145099  1
  Mg  Mg3  1  0.917384  0.280785  0.883071  1
  Ni  Ni4  1  0.623123  0.181641  0.568149  1
  Ni  Ni5  1  0.212969  0.372732  0.204171  1
  Ni  Ni6  1  0.783169  0.607178  0.824059  1
  Ni  Ni7  1  0.372786  0.798219  0.460068  1
  O  O8  1  0.817321  0.756239  0.609445  1
  O  O9  1  0.363806  0.435715  0.835751  1
  O  O10  1  0.632298  0.544226  0.192454  1
  O  O11  1  0.178644  0.223667  0.418766  1
  O  O12  1  0.078359  0.101422  0.732941  1
  O  O13  1  0.845288  0.200554  0.120347  1
  O  O14  1  0.917582  0.878492  0.295247  1
  O  O15  1  0.150693  0.779392  0.907858  1
