# generated using pymatgen
data_VF4
_symmetry_space_group_name_H-M   'P 1'
_cell_length_a   5.56773743
_cell_length_b   5.57211444
_cell_length_c   6.58578785
_cell_angle_alpha   115.59165363
_cell_angle_beta   115.00034446
_cell_angle_gamma   90.00396751
_symmetry_Int_Tables_number   1
_chemical_formula_structural   VF4
_chemical_formula_sum   'V2 F8'
_cell_volume   162.78631758
_cell_formula_units_Z   2
loop_
 _symmetry_equiv_pos_site_id
 _symmetry_equiv_pos_as_xyz
  1  'x, y, z'
loop_
 _atom_site_type_symbol
 _atom_site_label
 _atom_site_symmetry_multiplicity
 _atom_site_fract_x
 _atom_site_fract_y
 _atom_site_fract_z
 _atom_site_occupancy
  V  V0  1  0.995456  0.503715  0.998852  1
  V  V1  1  0.507915  0.009532  0.999271  1
  F  F2  1  0.948145  0.440430  0.228762  1
  F  F3  1  0.710041  0.217700  0.761099  1
  F  F4  1  0.049531  0.547096  0.765402  1
  F  F5  1  0.211854  0.047221  0.767320  1
  F  F6  1  0.281516  0.782951  0.238791  1
  F  F7  1  0.455530  0.284370  0.238532  1
  F  F8  1  0.776558  0.940438  0.229273  1
  F  F9  1  0.548101  0.719186  0.760166  1
