# generated using pymatgen
data_TaCuO4
_symmetry_space_group_name_H-M   'P 1'
_cell_length_a   6.50200260
_cell_length_b   8.99845298
_cell_length_c   11.73662321
_cell_angle_alpha   90.00000000
_cell_angle_beta   91.82642193
_cell_angle_gamma   90.00000000
_symmetry_Int_Tables_number   1
_chemical_formula_structural   TaCuO4
_chemical_formula_sum   'Ta8 Cu8 O32'
_cell_volume   686.33707866
_cell_formula_units_Z   8
loop_
 _symmetry_equiv_pos_site_id
 _symmetry_equiv_pos_as_xyz
  1  'x, y, z'
loop_
 _atom_site_type_symbol
 _atom_site_label
 _atom_site_symmetry_multiplicity
 _atom_site_fract_x
 _atom_site_fract_y
 _atom_site_fract_z
 _atom_site_occupancy
  Ta  Ta0  1  0.089203  0.423680  0.873850  1
  Ta  Ta1  1  0.089203  0.076320  0.373850  1
  Ta  Ta2  1  0.607806  0.104681  0.143593  1
  Ta  Ta3  1  0.910797  0.923680  0.626150  1
  Ta  Ta4  1  0.392194  0.895319  0.856407  1
  Ta  Ta5  1  0.392194  0.604681  0.356407  1
  Ta  Ta6  1  0.607806  0.395319  0.643593  1
  Ta  Ta7  1  0.910797  0.576320  0.126150  1
  Cu  Cu8  1  0.821758  0.113558  0.889985  1
  Cu  Cu9  1  0.372621  0.043530  0.610319  1
  Cu  Cu10  1  0.627379  0.956470  0.389681  1
  Cu  Cu11  1  0.178242  0.886442  0.110015  1
  Cu  Cu12  1  0.821758  0.386442  0.389985  1
  Cu  Cu13  1  0.372621  0.456470  0.110319  1
  Cu  Cu14  1  0.178242  0.613558  0.610015  1
  Cu  Cu15  1  0.627379  0.543530  0.889681  1
  O  O16  1  0.069099  0.285516  0.371878  1
  O  O17  1  0.638569  0.985237  0.587436  1
  O  O18  1  0.188111  0.654500  0.457699  1
  O  O19  1  0.811889  0.154500  0.042301  1
  O  O20  1  0.069099  0.214484  0.871878  1
  O  O21  1  0.930901  0.714484  0.628122  1
  O  O22  1  0.100619  0.075336  0.566876  1
  O  O23  1  0.457648  0.929524  0.115169  1
  O  O24  1  0.457648  0.570476  0.615169  1
  O  O25  1  0.277824  0.883881  0.701891  1
  O  O26  1  0.722176  0.383881  0.798109  1
  O  O27  1  0.542352  0.070476  0.884831  1
  O  O28  1  0.899381  0.924664  0.433124  1
  O  O29  1  0.881883  0.515317  0.275454  1
  O  O30  1  0.419338  0.248725  0.625625  1
  O  O31  1  0.419338  0.251275  0.125625  1
  O  O32  1  0.118117  0.015317  0.224546  1
  O  O33  1  0.542352  0.429524  0.384831  1
  O  O34  1  0.118117  0.484683  0.724546  1
  O  O35  1  0.811889  0.345500  0.542301  1
  O  O36  1  0.638569  0.514763  0.087436  1
  O  O37  1  0.722176  0.116119  0.298109  1
  O  O38  1  0.930901  0.785516  0.128122  1
  O  O39  1  0.100619  0.424664  0.066876  1
  O  O40  1  0.188111  0.845500  0.957699  1
  O  O41  1  0.580662  0.748725  0.874375  1
  O  O42  1  0.361431  0.014763  0.412564  1
  O  O43  1  0.361431  0.485237  0.912564  1
  O  O44  1  0.899381  0.575336  0.933124  1
  O  O45  1  0.580662  0.751275  0.374375  1
  O  O46  1  0.277824  0.616119  0.201891  1
  O  O47  1  0.881883  0.984683  0.775454  1
