# generated using pymatgen
data_MgCr2O4
_symmetry_space_group_name_H-M   'P 1'
_cell_length_a   6.00010944
_cell_length_b   5.98013979
_cell_length_c   23.85409627
_cell_angle_alpha   59.90778761
_cell_angle_beta   61.42423302
_cell_angle_gamma   60.11003561
_symmetry_Int_Tables_number   1
_chemical_formula_structural   MgCr2O4
_chemical_formula_sum   'Mg8 Cr16 O32'
_cell_volume   611.55163510
_cell_formula_units_Z   8
loop_
 _symmetry_equiv_pos_site_id
 _symmetry_equiv_pos_as_xyz
  1  'x, y, z'
loop_
 _atom_site_type_symbol
 _atom_site_label
 _atom_site_symmetry_multiplicity
 _atom_site_fract_x
 _atom_site_fract_y
 _atom_site_fract_z
 _atom_site_occupancy
  Mg  Mg0  1  0.133744  0.123267  0.029931  1
  Mg  Mg1  1  0.006806  0.497352  0.124622  1
  Mg  Mg2  1  0.133580  0.120069  0.281570  1
  Mg  Mg3  1  0.004977  0.498591  0.374460  1
  Mg  Mg4  1  0.000110  0.500660  0.624642  1
  Mg  Mg5  1  0.501688  0.500408  0.499374  1
  Mg  Mg6  1  0.000099  0.500478  0.874736  1
  Mg  Mg7  1  0.499563  0.500186  0.750016  1
  Cr  Cr8  1  0.497142  0.498501  0.125024  1
  Cr  Cr9  1  0.496210  0.498786  0.251554  1
  Cr  Cr10  1  0.497142  0.004263  0.125024  1
  Cr  Cr11  1  0.129829  0.120937  0.532074  1
  Cr  Cr12  1  0.501733  0.498932  0.374397  1
  Cr  Cr13  1  0.862504  0.879147  0.219801  1
  Cr  Cr14  1  0.127453  0.124740  0.780766  1
  Cr  Cr15  1  0.501733  0.001749  0.374397  1
  Cr  Cr16  1  0.501024  0.500325  0.624619  1
  Cr  Cr17  1  0.873765  0.879000  0.467059  1
  Cr  Cr18  1  0.501024  0.000173  0.624619  1
  Cr  Cr19  1  0.494571  0.002766  0.875577  1
  Cr  Cr20  1  0.494571  0.500354  0.875577  1
  Cr  Cr21  1  0.872342  0.877627  0.718100  1
  Cr  Cr22  1  0.495391  0.498323  0.001991  1
  Cr  Cr23  1  0.860276  0.878826  0.970518  1
  O  O24  1  0.268370  0.258492  0.063684  1
  O  O25  1  0.272732  0.253497  0.180068  1
  O  O26  1  0.268370  0.718404  0.063684  1
  O  O27  1  0.720215  0.257723  0.066085  1
  O  O28  1  0.281031  0.742800  0.183342  1
  O  O29  1  0.269076  0.261033  0.313852  1
  O  O30  1  0.734752  0.273369  0.187284  1
  O  O31  1  0.279875  0.244641  0.432710  1
  O  O32  1  0.269076  0.714485  0.313852  1
  O  O33  1  0.730433  0.747354  0.068715  1
  O  O34  1  0.720533  0.258684  0.315525  1
  O  O35  1  0.734752  0.742742  0.187284  1
  O  O36  1  0.259737  0.255601  0.564038  1
  O  O37  1  0.274294  0.753334  0.429759  1
  O  O38  1  0.746433  0.271103  0.434443  1
  O  O39  1  0.277039  0.249121  0.681180  1
  O  O40  1  0.259737  0.728510  0.564038  1
  O  O41  1  0.726472  0.750879  0.317942  1
  O  O42  1  0.724463  0.250216  0.568776  1
  O  O43  1  0.746433  0.744694  0.434443  1
  O  O44  1  0.273906  0.751484  0.680781  1
  O  O45  1  0.255686  0.253742  0.814505  1
  O  O46  1  0.742201  0.270640  0.685814  1
  O  O47  1  0.267815  0.258419  0.928836  1
  O  O48  1  0.255686  0.732549  0.814505  1
  O  O49  1  0.724054  0.751377  0.568298  1
  O  O50  1  0.724535  0.247543  0.820095  1
  O  O51  1  0.742201  0.743906  0.685814  1
  O  O52  1  0.279566  0.740499  0.934859  1
  O  O53  1  0.730220  0.274022  0.938043  1
  O  O54  1  0.722805  0.750091  0.819253  1
  O  O55  1  0.730220  0.743582  0.938043  1
