# generated using pymatgen
data_Mg(SnO2)2
_symmetry_space_group_name_H-M   'P 1'
_cell_length_a   6.34891238
_cell_length_b   6.37264815
_cell_length_c   27.49502355
_cell_angle_alpha   62.38362826
_cell_angle_beta   62.69920014
_cell_angle_gamma   59.87625245
_symmetry_Int_Tables_number   1
_chemical_formula_structural   Mg(SnO2)2
_chemical_formula_sum   'Mg8 Sn16 O32'
_cell_volume   814.65085982
_cell_formula_units_Z   8
loop_
 _symmetry_equiv_pos_site_id
 _symmetry_equiv_pos_as_xyz
  1  'x, y, z'
loop_
 _atom_site_type_symbol
 _atom_site_label
 _atom_site_symmetry_multiplicity
 _atom_site_fract_x
 _atom_site_fract_y
 _atom_site_fract_z
 _atom_site_occupancy
  Mg  Mg0  1  0.120121  0.101575  0.044183  1
  Mg  Mg1  1  0.998440  0.500841  0.124969  1
  Mg  Mg2  1  0.128679  0.097163  0.294249  1
  Mg  Mg3  1  0.997744  0.492542  0.379293  1
  Mg  Mg4  1  0.997948  0.499186  0.625920  1
  Mg  Mg5  1  0.499372  0.496531  0.501892  1
  Mg  Mg6  1  0.996150  0.512385  0.869770  1
  Mg  Mg7  1  0.497786  0.502847  0.749130  1
  Sn  Sn8  1  0.500285  0.500391  0.124756  1
  Sn  Sn9  1  0.491041  0.490554  0.256962  1
  Sn  Sn10  1  0.500285  0.000299  0.124756  1
  Sn  Sn11  1  0.138082  0.118168  0.531395  1
  Sn  Sn12  1  0.508262  0.495353  0.377169  1
  Sn  Sn13  1  0.862719  0.887121  0.215760  1
  Sn  Sn14  1  0.127229  0.121779  0.782303  1
  Sn  Sn15  1  0.508262  0.987711  0.377169  1
  Sn  Sn16  1  0.498988  0.498903  0.625770  1
  Sn  Sn17  1  0.864486  0.874383  0.471687  1
  Sn  Sn18  1  0.498988  0.999029  0.625770  1
  Sn  Sn19  1  0.489920  0.014121  0.872602  1
  Sn  Sn20  1  0.489920  0.505551  0.872602  1
  Sn  Sn21  1  0.860224  0.879289  0.720299  1
  Sn  Sn22  1  0.487902  0.499348  0.003351  1
  Sn  Sn23  1  0.855433  0.897729  0.962277  1
  O  O24  1  0.258037  0.241442  0.071461  1
  O  O25  1  0.281116  0.261424  0.174009  1
  O  O26  1  0.258037  0.714677  0.071461  1
  O  O27  1  0.722930  0.247554  0.070491  1
  O  O28  1  0.276661  0.764963  0.173353  1
  O  O29  1  0.263669  0.227050  0.322936  1
  O  O30  1  0.764714  0.279761  0.170426  1
  O  O31  1  0.290883  0.274452  0.415052  1
  O  O32  1  0.263669  0.717538  0.322936  1
  O  O33  1  0.716252  0.724507  0.083683  1
  O  O34  1  0.741059  0.228742  0.325365  1
  O  O35  1  0.764714  0.773821  0.170426  1
  O  O36  1  0.270755  0.248636  0.569243  1
  O  O37  1  0.297218  0.739664  0.430863  1
  O  O38  1  0.728510  0.291280  0.434705  1
  O  O39  1  0.277217  0.276013  0.667689  1
  O  O40  1  0.270755  0.703636  0.569243  1
  O  O41  1  0.731698  0.713646  0.335252  1
  O  O42  1  0.708078  0.251859  0.572051  1
  O  O43  1  0.728510  0.741392  0.434705  1
  O  O44  1  0.293719  0.746590  0.678275  1
  O  O45  1  0.264567  0.266655  0.816908  1
  O  O46  1  0.727172  0.296315  0.681570  1
  O  O47  1  0.275778  0.258849  0.926631  1
  O  O48  1  0.264567  0.701142  0.816908  1
  O  O49  1  0.721546  0.723346  0.582940  1
  O  O50  1  0.692012  0.269227  0.817383  1
  O  O51  1  0.727172  0.750236  0.681570  1
  O  O52  1  0.265415  0.780897  0.918198  1
  O  O53  1  0.766703  0.289733  0.915253  1
  O  O54  1  0.701900  0.739606  0.829722  1
  O  O55  1  0.766703  0.782551  0.915253  1
