# generated using pymatgen
data_Fe3P3O13
_symmetry_space_group_name_H-M   'P 1'
_cell_length_a   6.38644597
_cell_length_b   7.61526505
_cell_length_c   10.43376669
_cell_angle_alpha   99.07365521
_cell_angle_beta   90.00000000
_cell_angle_gamma   90.00000000
_symmetry_Int_Tables_number   1
_chemical_formula_structural   Fe3P3O13
_chemical_formula_sum   'Fe6 P6 O26'
_cell_volume   501.09090543
_cell_formula_units_Z   2
loop_
 _symmetry_equiv_pos_site_id
 _symmetry_equiv_pos_as_xyz
  1  'x, y, z'
loop_
 _atom_site_type_symbol
 _atom_site_label
 _atom_site_symmetry_multiplicity
 _atom_site_fract_x
 _atom_site_fract_y
 _atom_site_fract_z
 _atom_site_occupancy
  Fe  Fe0  1  0.250000  0.361564  0.191811  1
  Fe  Fe1  1  0.750000  0.638436  0.808189  1
  Fe  Fe2  1  0.250000  0.786991  0.439217  1
  Fe  Fe3  1  0.500000  0.000000  0.000000  1
  Fe  Fe4  1  0.750000  0.213009  0.560783  1
  Fe  Fe5  1  0.000000  0.000000  0.000000  1
  P  P6  1  0.250000  0.216654  0.481962  1
  P  P7  1  0.750000  0.783346  0.518038  1
  P  P8  1  0.250000  0.743184  0.764353  1
  P  P9  1  0.750000  0.256816  0.235647  1
  P  P10  1  0.750000  0.307462  0.883963  1
  P  P11  1  0.250000  0.692538  0.116037  1
  O  O12  1  0.750000  0.345739  0.741025  1
  O  O13  1  0.554152  0.744374  0.433515  1
  O  O14  1  0.250000  0.794258  0.627577  1
  O  O15  1  0.552097  0.205240  0.912477  1
  O  O16  1  0.750000  0.649445  0.615378  1
  O  O17  1  0.750000  0.879479  0.906655  1
  O  O18  1  0.250000  0.350555  0.384622  1
  O  O19  1  0.052097  0.794760  0.087523  1
  O  O20  1  0.250000  0.024965  0.406871  1
  O  O21  1  0.750000  0.975035  0.593129  1
  O  O22  1  0.054729  0.633449  0.785549  1
  O  O23  1  0.250000  0.120521  0.093345  1
  O  O24  1  0.554729  0.366551  0.214451  1
  O  O25  1  0.750000  0.501047  0.956144  1
  O  O26  1  0.750000  0.205742  0.372423  1
  O  O27  1  0.447903  0.794760  0.087523  1
  O  O28  1  0.945848  0.744374  0.433515  1
  O  O29  1  0.445848  0.255626  0.566485  1
  O  O30  1  0.445271  0.633449  0.785549  1
  O  O31  1  0.250000  0.654261  0.258975  1
  O  O32  1  0.750000  0.083859  0.130643  1
  O  O33  1  0.250000  0.916141  0.869357  1
  O  O34  1  0.945271  0.366551  0.214451  1
  O  O35  1  0.947903  0.205240  0.912477  1
  O  O36  1  0.054152  0.255626  0.566485  1
  O  O37  1  0.250000  0.498953  0.043856  1
