# generated using pymatgen
data_Mg(CoO2)4
_symmetry_space_group_name_H-M   'P 1'
_cell_length_a   2.85141399
_cell_length_b   6.79286194
_cell_length_c   6.98127289
_cell_angle_alpha   81.35869083
_cell_angle_beta   78.22066132
_cell_angle_gamma   77.89351687
_symmetry_Int_Tables_number   1
_chemical_formula_structural   Mg(CoO2)4
_chemical_formula_sum   'Mg1 Co4 O8'
_cell_volume   128.61252872
_cell_formula_units_Z   1
loop_
 _symmetry_equiv_pos_site_id
 _symmetry_equiv_pos_as_xyz
  1  'x, y, z'
loop_
 _atom_site_type_symbol
 _atom_site_label
 _atom_site_symmetry_multiplicity
 _atom_site_fract_x
 _atom_site_fract_y
 _atom_site_fract_z
 _atom_site_occupancy
  Mg  Mg0  1  0.352226  0.122331  0.184906  1
  Co  Co1  1  0.639062  0.169438  0.564272  1
  Co  Co2  1  0.152820  0.506394  0.200259  1
  Co  Co3  1  0.844101  0.488925  0.834981  1
  Co  Co4  1  0.358800  0.801598  0.492669  1
  O  O5  1  0.868634  0.660795  0.613810  1
  O  O6  1  0.460918  0.324642  0.765434  1
  O  O7  1  0.539722  0.664679  0.268249  1
  O  O8  1  0.143319  0.303718  0.421695  1
  O  O9  1  0.167095  0.007948  0.669563  1
  O  O10  1  0.793259  0.333890  0.091497  1
  O  O11  1  0.837084  0.976359  0.361249  1
  O  O12  1  0.221124  0.629920  0.940207  1
