# generated using pymatgen
data_MnO2
_symmetry_space_group_name_H-M   'P 1'
_cell_length_a   8.75102169
_cell_length_b   9.10832700
_cell_length_c   10.38883393
_cell_angle_alpha   90.00000000
_cell_angle_beta   90.00000000
_cell_angle_gamma   108.70011201
_symmetry_Int_Tables_number   1
_chemical_formula_structural   MnO2
_chemical_formula_sum   'Mn24 O48'
_cell_volume   784.35070754
_cell_formula_units_Z   24
loop_
 _symmetry_equiv_pos_site_id
 _symmetry_equiv_pos_as_xyz
  1  'x, y, z'
loop_
 _atom_site_type_symbol
 _atom_site_label
 _atom_site_symmetry_multiplicity
 _atom_site_fract_x
 _atom_site_fract_y
 _atom_site_fract_z
 _atom_site_occupancy
  Mn  Mn0  1  0.064951  0.944776  0.885380  1
  Mn  Mn1  1  0.231449  0.444633  0.614954  1
  Mn  Mn2  1  0.935049  0.055224  0.114620  1
  Mn  Mn3  1  0.435049  0.555224  0.385380  1
  Mn  Mn4  1  0.388767  0.916117  0.398687  1
  Mn  Mn5  1  0.268551  0.055367  0.114954  1
  Mn  Mn6  1  0.111233  0.583883  0.898687  1
  Mn  Mn7  1  0.768551  0.555367  0.385046  1
  Mn  Mn8  1  0.898093  0.444160  0.614544  1
  Mn  Mn9  1  0.888767  0.416117  0.101313  1
  Mn  Mn10  1  0.731449  0.944633  0.885046  1
  Mn  Mn11  1  0.101907  0.555840  0.385456  1
  Mn  Mn12  1  0.398093  0.944160  0.885456  1
  Mn  Mn13  1  0.564951  0.444776  0.614620  1
  Mn  Mn14  1  0.601907  0.055840  0.114544  1
  Mn  Mn15  1  0.611233  0.083883  0.601313  1
  Mn  Mn16  1  0.444582  0.583640  0.898648  1
  Mn  Mn17  1  0.221932  0.416164  0.101497  1
  Mn  Mn18  1  0.721932  0.916164  0.398503  1
  Mn  Mn19  1  0.944582  0.083640  0.601352  1
  Mn  Mn20  1  0.055418  0.916360  0.398648  1
  Mn  Mn21  1  0.778068  0.583836  0.898503  1
  Mn  Mn22  1  0.278068  0.083836  0.601497  1
  Mn  Mn23  1  0.555418  0.416360  0.101352  1
  O  O24  1  0.455699  0.117192  0.480920  1
  O  O25  1  0.111000  0.583483  0.570711  1
  O  O26  1  0.815581  0.195962  0.148912  1
  O  O27  1  0.351472  0.304255  0.648925  1
  O  O28  1  0.544301  0.882808  0.519080  1
  O  O29  1  0.739388  0.468112  0.212494  1
  O  O30  1  0.184419  0.804038  0.851088  1
  O  O31  1  0.389000  0.916517  0.070711  1
  O  O32  1  0.955699  0.617192  0.019080  1
  O  O33  1  0.260612  0.531888  0.787506  1
  O  O34  1  0.721873  0.916581  0.070060  1
  O  O35  1  0.905841  0.967788  0.287174  1
  O  O36  1  0.710837  0.382786  0.980820  1
  O  O37  1  0.094159  0.032212  0.712826  1
  O  O38  1  0.289163  0.617214  0.019180  1
  O  O39  1  0.482002  0.196251  0.148822  1
  O  O40  1  0.044301  0.382808  0.980920  1
  O  O41  1  0.594159  0.532212  0.787174  1
  O  O42  1  0.148528  0.195745  0.148925  1
  O  O43  1  0.444617  0.583805  0.570377  1
  O  O44  1  0.927199  0.531705  0.787307  1
  O  O45  1  0.239388  0.968112  0.287506  1
  O  O46  1  0.789163  0.117214  0.480820  1
  O  O47  1  0.889000  0.416517  0.429289  1
  O  O48  1  0.944617  0.083805  0.929623  1
  O  O49  1  0.851472  0.804255  0.851075  1
  O  O50  1  0.122561  0.117340  0.481010  1
  O  O51  1  0.611000  0.083483  0.929289  1
  O  O52  1  0.517998  0.803749  0.851178  1
  O  O53  1  0.221873  0.416581  0.429940  1
  O  O54  1  0.622561  0.617340  0.018990  1
  O  O55  1  0.017998  0.303749  0.648822  1
  O  O56  1  0.760612  0.031888  0.712494  1
  O  O57  1  0.555383  0.416195  0.429623  1
  O  O58  1  0.315581  0.695962  0.351088  1
  O  O59  1  0.982002  0.696251  0.351178  1
  O  O60  1  0.778127  0.583419  0.570060  1
  O  O61  1  0.572801  0.968295  0.287307  1
  O  O62  1  0.377439  0.382660  0.981010  1
  O  O63  1  0.877439  0.882660  0.518990  1
  O  O64  1  0.210837  0.882786  0.519180  1
  O  O65  1  0.055383  0.916195  0.070377  1
  O  O66  1  0.648528  0.695745  0.351075  1
  O  O67  1  0.684419  0.304038  0.648912  1
  O  O68  1  0.278127  0.083419  0.929940  1
  O  O69  1  0.072801  0.468295  0.212693  1
  O  O70  1  0.405841  0.467788  0.212826  1
  O  O71  1  0.427199  0.031705  0.712693  1
