# generated using pymatgen
data_SnO2
_symmetry_space_group_name_H-M   'P 1'
_cell_length_a   3.23246653
_cell_length_b   7.76134160
_cell_length_c   7.77540447
_cell_angle_alpha   87.81406301
_cell_angle_beta   78.00948136
_cell_angle_gamma   78.01990174
_symmetry_Int_Tables_number   1
_chemical_formula_structural   SnO2
_chemical_formula_sum   'Sn4 O8'
_cell_volume   186.65689508
_cell_formula_units_Z   4
loop_
 _symmetry_equiv_pos_site_id
 _symmetry_equiv_pos_as_xyz
  1  'x, y, z'
loop_
 _atom_site_type_symbol
 _atom_site_label
 _atom_site_symmetry_multiplicity
 _atom_site_fract_x
 _atom_site_fract_y
 _atom_site_fract_z
 _atom_site_occupancy
  Sn  Sn0  1  0.651147  0.183096  0.521170  1
  Sn  Sn1  1  0.171151  0.478581  0.183399  1
  Sn  Sn2  1  0.832404  0.521847  0.819017  1
  Sn  Sn3  1  0.352531  0.817171  0.481482  1
  O  O4  1  0.839805  0.704956  0.619246  1
  O  O5  1  0.458278  0.384864  0.704038  1
  O  O6  1  0.545387  0.616598  0.297048  1
  O  O7  1  0.165133  0.294192  0.382137  1
  O  O8  1  0.156809  0.051625  0.640632  1
  O  O9  1  0.797061  0.360265  0.049730  1
  O  O10  1  0.846561  0.948774  0.362496  1
  O  O11  1  0.206586  0.640206  0.952422  1
