# generated using pymatgen
data_CrO2
_symmetry_space_group_name_H-M   'P 1'
_cell_length_a   5.80634724
_cell_length_b   6.00272608
_cell_length_c   23.35164205
_cell_angle_alpha   59.06199029
_cell_angle_beta   59.33707421
_cell_angle_gamma   58.87437022
_symmetry_Int_Tables_number   1
_chemical_formula_structural   CrO2
_chemical_formula_sum   'Cr16 O32'
_cell_volume   563.56750395
_cell_formula_units_Z   16
loop_
 _symmetry_equiv_pos_site_id
 _symmetry_equiv_pos_as_xyz
  1  'x, y, z'
loop_
 _atom_site_type_symbol
 _atom_site_label
 _atom_site_symmetry_multiplicity
 _atom_site_fract_x
 _atom_site_fract_y
 _atom_site_fract_z
 _atom_site_occupancy
  Cr  Cr0  1  0.488609  0.488332  0.126144  1
  Cr  Cr1  1  0.482868  0.490539  0.259019  1
  Cr  Cr2  1  0.488600  0.018482  0.126144  1
  Cr  Cr3  1  0.127799  0.117731  0.534182  1
  Cr  Cr4  1  0.499435  0.495845  0.376251  1
  Cr  Cr5  1  0.858118  0.880500  0.220222  1
  Cr  Cr6  1  0.128105  0.129526  0.778213  1
  Cr  Cr7  1  0.499437  -0.000274  0.376249  1
  Cr  Cr8  1  0.502648  0.500577  0.624152  1
  Cr  Cr9  1  0.878211  0.876841  0.467029  1
  Cr  Cr10  1  0.502651  0.000126  0.624152  1
  Cr  Cr11  1  0.495028  0.018866  0.871666  1
  Cr  Cr12  1  0.495015  0.499454  0.871669  1
  Cr  Cr13  1  0.874941  0.878381  0.717064  1
  Cr  Cr14  1  0.492650  0.494018  0.004834  1
  Cr  Cr15  1  0.856076  0.878757  0.971610  1
  O  O16  1  0.296460  0.252398  0.061551  1
  O  O17  1  0.290420  0.246770  0.179010  1
  O  O18  1  0.296469  0.704968  0.061553  1
  O  O19  1  0.717606  0.256927  0.067132  1
  O  O20  1  0.257704  0.745776  0.187691  1
  O  O21  1  0.290176  0.250292  0.314385  1
  O  O22  1  0.719494  0.257157  0.191566  1
  O  O23  1  0.271313  0.233286  0.440525  1
  O  O24  1  0.290158  0.702005  0.314391  1
  O  O25  1  0.717418  0.758502  0.066390  1
  O  O26  1  0.710265  0.254789  0.320042  1
  O  O27  1  0.719484  0.757116  0.191568  1
  O  O28  1  0.252912  0.228542  0.563223  1
  O  O29  1  0.250442  0.757935  0.433424  1
  O  O30  1  0.756355  0.218380  0.437639  1
  O  O31  1  0.273717  0.245362  0.683885  1
  O  O32  1  0.252904  0.765641  0.563224  1
  O  O33  1  0.725064  0.753027  0.317217  1
  O  O34  1  0.742917  0.243978  0.567274  1
  O  O35  1  0.756368  0.774727  0.437634  1
  O  O36  1  0.263005  0.755581  0.681450  1
  O  O37  1  0.254680  0.224729  0.809643  1
  O  O38  1  0.751867  0.230433  0.686554  1
  O  O39  1  0.283019  0.271341  0.918576  1
  O  O40  1  0.254673  0.782026  0.809645  1
  O  O41  1  0.736229  0.759242  0.561310  1
  O  O42  1  0.748943  0.246470  0.814536  1
  O  O43  1  0.751849  0.771422  0.686562  1
  O  O44  1  0.262617  0.750268  0.934208  1
  O  O45  1  0.717429  0.259766  0.938787  1
  O  O46  1  0.728050  0.762707  0.811635  1
  O  O47  1  0.717434  0.767673  0.938790  1
