# generated using pymatgen
data_MgTi2O4
_symmetry_space_group_name_H-M   'P 1'
_cell_length_a   6.11674468
_cell_length_b   5.92403001
_cell_length_c   23.88695598
_cell_angle_alpha   60.26392628
_cell_angle_beta   60.86535727
_cell_angle_gamma   61.03685319
_symmetry_Int_Tables_number   1
_chemical_formula_structural   MgTi2O4
_chemical_formula_sum   'Mg8 Ti16 O32'
_cell_volume   621.95706727
_cell_formula_units_Z   8
loop_
 _symmetry_equiv_pos_site_id
 _symmetry_equiv_pos_as_xyz
  1  'x, y, z'
loop_
 _atom_site_type_symbol
 _atom_site_label
 _atom_site_symmetry_multiplicity
 _atom_site_fract_x
 _atom_site_fract_y
 _atom_site_fract_z
 _atom_site_occupancy
  Mg  Mg0  1  0.116960  0.130345  0.030588  1
  Mg  Mg1  1  0.017774  0.494706  0.123203  1
  Mg  Mg2  1  0.127084  0.127052  0.279703  1
  Mg  Mg3  1  0.996065  0.504145  0.373911  1
  Mg  Mg4  1  0.001000  0.499308  0.625096  1
  Mg  Mg5  1  0.499162  0.503541  0.498439  1
  Mg  Mg6  1  0.016922  0.491780  0.874880  1
  Mg  Mg7  1  0.504564  0.492018  0.752849  1
  Ti  Ti8  1  0.495249  0.504638  0.127120  1
  Ti  Ti9  1  0.496540  0.506704  0.247513  1
  Ti  Ti10  1  0.495249  0.991632  0.127120  1
  Ti  Ti11  1  0.122502  0.120860  0.533945  1
  Ti  Ti12  1  0.495836  0.491058  0.370415  1
  Ti  Ti13  1  0.860847  0.877639  0.220969  1
  Ti  Ti14  1  0.119031  0.121961  0.784262  1
  Ti  Ti15  1  0.495836  0.031447  0.370415  1
  Ti  Ti16  1  0.500290  0.506906  0.624983  1
  Ti  Ti17  1  0.881865  0.880421  0.464323  1
  Ti  Ti18  1  0.500290  0.992871  0.624983  1
  Ti  Ti19  1  0.499261  0.968571  0.880244  1
  Ti  Ti20  1  0.499261  0.511192  0.880244  1
  Ti  Ti21  1  0.874833  0.878412  0.717085  1
  Ti  Ti22  1  0.495071  0.508766  0.996850  1
  Ti  Ti23  1  0.854372  0.877771  0.972521  1
  O  O24  1  0.275686  0.248220  0.063113  1
  O  O25  1  0.271479  0.253599  0.180330  1
  O  O26  1  0.275686  0.723645  0.063113  1
  O  O27  1  0.719531  0.260777  0.064729  1
  O  O28  1  0.231268  0.756438  0.188964  1
  O  O29  1  0.262102  0.256110  0.314194  1
  O  O30  1  0.747202  0.264956  0.185417  1
  O  O31  1  0.252503  0.251527  0.436110  1
  O  O32  1  0.262102  0.725011  0.314194  1
  O  O33  1  0.747774  0.738815  0.068649  1
  O  O34  1  0.742782  0.257715  0.310448  1
  O  O35  1  0.747202  0.746174  0.185417  1
  O  O36  1  0.258419  0.250394  0.565119  1
  O  O37  1  0.259021  0.750211  0.435139  1
  O  O38  1  0.739936  0.266895  0.434508  1
  O  O39  1  0.250402  0.250918  0.686941  1
  O  O40  1  0.258419  0.730712  0.565119  1
  O  O41  1  0.740337  0.744899  0.317466  1
  O  O42  1  0.741144  0.252578  0.563425  1
  O  O43  1  0.739936  0.755138  0.434508  1
  O  O44  1  0.254461  0.748033  0.687368  1
  O  O45  1  0.260279  0.245123  0.814105  1
  O  O46  1  0.741277  0.268303  0.684978  1
  O  O47  1  0.277142  0.253313  0.929058  1
  O  O48  1  0.260279  0.738177  0.814105  1
  O  O49  1  0.751666  0.750372  0.561898  1
  O  O50  1  0.744810  0.246386  0.815605  1
  O  O51  1  0.741277  0.750510  0.684978  1
  O  O52  1  0.222599  0.753873  0.942414  1
  O  O53  1  0.752737  0.263615  0.936026  1
  O  O54  1  0.751942  0.744279  0.814874  1
  O  O55  1  0.752737  0.739544  0.936026  1
