# generated using pymatgen
data_Cr2S5
_symmetry_space_group_name_H-M   'P 1'
_cell_length_a   4.24765724
_cell_length_b   6.63904005
_cell_length_c   13.55046897
_cell_angle_alpha   90.02827244
_cell_angle_beta   90.00122145
_cell_angle_gamma   89.99784012
_symmetry_Int_Tables_number   1
_chemical_formula_structural   Cr2S5
_chemical_formula_sum   'Cr4 S10'
_cell_volume   382.12814490
_cell_formula_units_Z   2
loop_
 _symmetry_equiv_pos_site_id
 _symmetry_equiv_pos_as_xyz
  1  'x, y, z'
loop_
 _atom_site_type_symbol
 _atom_site_label
 _atom_site_symmetry_multiplicity
 _atom_site_fract_x
 _atom_site_fract_y
 _atom_site_fract_z
 _atom_site_occupancy
  Cr  Cr0  1  0.018559  0.092271  0.148171  1
  Cr  Cr1  1  0.518580  0.906546  0.352855  1
  Cr  Cr2  1  0.518573  0.906215  0.647810  1
  Cr  Cr3  1  0.018601  0.093918  0.851956  1
  S  S4  1  0.518527  0.985715  0.185486  1
  S  S5  1  0.018559  0.015155  0.316319  1
  S  S6  1  0.018539  0.013373  0.684575  1
  S  S7  1  0.518570  0.985829  0.815238  1
  S  S8  1  0.018562  0.393222  0.858508  1
  S  S9  1  0.518583  0.607170  0.640422  1
  S  S10  1  0.518519  0.607172  0.358498  1
  S  S11  1  0.518618  0.029512  0.500454  1
  S  S12  1  0.018639  0.972615  0.999857  1
  S  S13  1  0.018564  0.391288  0.139849  1
