# generated using pymatgen
data_TiO2
_symmetry_space_group_name_H-M   'P 1'
_cell_length_a   5.18453362
_cell_length_b   5.98792675
_cell_length_c   10.67579738
_cell_angle_alpha   90.00000000
_cell_angle_beta   90.00000000
_cell_angle_gamma   90.00000000
_symmetry_Int_Tables_number   1
_chemical_formula_structural   TiO2
_chemical_formula_sum   'Ti8 O16'
_cell_volume   331.42593994
_cell_formula_units_Z   8
loop_
 _symmetry_equiv_pos_site_id
 _symmetry_equiv_pos_as_xyz
  1  'x, y, z'
loop_
 _atom_site_type_symbol
 _atom_site_label
 _atom_site_symmetry_multiplicity
 _atom_site_fract_x
 _atom_site_fract_y
 _atom_site_fract_z
 _atom_site_occupancy
  Ti  Ti0  1  0.493201  0.750000  0.487155  1
  Ti  Ti1  1  0.493201  0.750000  0.012845  1
  Ti  Ti2  1  0.506799  0.250000  0.512845  1
  Ti  Ti3  1  0.506799  0.250000  0.987155  1
  Ti  Ti4  1  0.000000  0.500000  0.500000  1
  Ti  Ti5  1  0.000000  0.000000  0.000000  1
  Ti  Ti6  1  0.000000  0.000000  0.500000  1
  Ti  Ti7  1  0.000000  0.500000  0.000000  1
  O  O8  1  0.832818  0.750000  0.407561  1
  O  O9  1  0.832818  0.750000  0.092439  1
  O  O10  1  0.167182  0.250000  0.592439  1
  O  O11  1  0.167182  0.250000  0.907561  1
  O  O12  1  0.166500  0.750000  0.588889  1
  O  O13  1  0.166500  0.750000  0.911111  1
  O  O14  1  0.833500  0.250000  0.411111  1
  O  O15  1  0.833500  0.250000  0.088889  1
  O  O16  1  0.666921  0.500281  0.591395  1
  O  O17  1  0.666921  0.999719  0.908605  1
  O  O18  1  0.333079  0.000281  0.408605  1
  O  O19  1  0.333079  0.499719  0.091395  1
  O  O20  1  0.333079  0.499719  0.408605  1
  O  O21  1  0.333079  0.000281  0.091395  1
  O  O22  1  0.666921  0.999719  0.591395  1
  O  O23  1  0.666921  0.500281  0.908605  1
