# generated using pymatgen
data_Mg(MoO2)2
_symmetry_space_group_name_H-M   'P 1'
_cell_length_a   6.28633879
_cell_length_b   6.42374622
_cell_length_c   25.46804712
_cell_angle_alpha   59.70479439
_cell_angle_beta   59.49608986
_cell_angle_gamma   59.27426684
_symmetry_Int_Tables_number   1
_chemical_formula_structural   Mg(MoO2)2
_chemical_formula_sum   'Mg8 Mo16 O32'
_cell_volume   718.79414608
_cell_formula_units_Z   8
loop_
 _symmetry_equiv_pos_site_id
 _symmetry_equiv_pos_as_xyz
  1  'x, y, z'
loop_
 _atom_site_type_symbol
 _atom_site_label
 _atom_site_symmetry_multiplicity
 _atom_site_fract_x
 _atom_site_fract_y
 _atom_site_fract_z
 _atom_site_occupancy
  Mg  Mg0  1  0.142675  0.112721  0.032971  1
  Mg  Mg1  1  0.016356  0.493143  0.124339  1
  Mg  Mg2  1  0.131441  0.126319  0.278980  1
  Mg  Mg3  1  0.996378  0.505335  0.373238  1
  Mg  Mg4  1  0.000426  0.503720  0.623033  1
  Mg  Mg5  1  0.493139  0.508279  0.497576  1
  Mg  Mg6  1  0.012071  0.491842  0.876061  1
  Mg  Mg7  1  0.505113  0.501180  0.748131  1
  Mo  Mo8  1  0.514662  0.496287  0.123827  1
  Mo  Mo9  1  0.494640  0.500464  0.251108  1
  Mo  Mo10  1  0.514662  0.993741  0.123827  1
  Mo  Mo11  1  0.111148  0.090414  0.552006  1
  Mo  Mo12  1  0.478927  0.503891  0.376667  1
  Mo  Mo13  1  0.853025  0.883088  0.220200  1
  Mo  Mo14  1  0.100847  0.079828  0.809874  1
  Mo  Mo15  1  0.478927  0.010514  0.376667  1
  Mo  Mo16  1  0.487827  0.508992  0.622116  1
  Mo  Mo17  1  0.846431  0.892780  0.467002  1
  Mo  Mo18  1  0.487827  0.014719  0.622116  1
  Mo  Mo19  1  0.507937  -0.004856  0.876438  1
  Mo  Mo20  1  0.507937  0.491165  0.876438  1
  Mo  Mo21  1  0.906057  0.920192  0.688389  1
  Mo  Mo22  1  0.501733  0.487927  0.005604  1
  Mo  Mo23  1  0.897781  0.893493  0.953808  1
  O  O24  1  0.264678  0.251863  0.065393  1
  O  O25  1  0.270723  0.252909  0.180865  1
  O  O26  1  0.264678  0.721888  0.065393  1
  O  O27  1  0.744846  0.247645  0.064966  1
  O  O28  1  0.288389  0.742885  0.181460  1
  O  O29  1  0.246472  0.266033  0.313648  1
  O  O30  1  0.757931  0.273380  0.186501  1
  O  O31  1  0.241216  0.268401  0.430495  1
  O  O32  1  0.246472  0.732903  0.313648  1
  O  O33  1  0.760431  0.735449  0.067168  1
  O  O34  1  0.722072  0.256233  0.316366  1
  O  O35  1  0.757931  0.722684  0.186501  1
  O  O36  1  0.257459  0.289048  0.558926  1
  O  O37  1  0.246610  0.754969  0.435863  1
  O  O38  1  0.738222  0.273827  0.434762  1
  O  O39  1  0.257898  0.269516  0.675768  1
  O  O40  1  0.257459  0.717788  0.558926  1
  O  O41  1  0.721427  0.742906  0.323190  1
  O  O42  1  0.707984  0.277507  0.559250  1
  O  O43  1  0.738222  0.748906  0.434762  1
  O  O44  1  0.276682  0.733960  0.688849  1
  O  O45  1  0.267008  0.258768  0.815622  1
  O  O46  1  0.735314  0.290663  0.683147  1
  O  O47  1  0.256639  0.254893  0.933393  1
  O  O48  1  0.267008  0.711734  0.815622  1
  O  O49  1  0.743415  0.751734  0.563280  1
  O  O50  1  0.725345  0.260880  0.813224  1
  O  O51  1  0.735314  0.741438  0.683147  1
  O  O52  1  0.282917  0.729216  0.939663  1
  O  O53  1  0.743373  0.266643  0.940362  1
  O  O54  1  0.744526  0.719618  0.829059  1
  O  O55  1  0.743373  0.728536  0.940362  1
