# generated using pymatgen
data_CrO2
_symmetry_space_group_name_H-M   'P 1'
_cell_length_a   5.74228435
_cell_length_b   5.74228464
_cell_length_c   6.18969262
_cell_angle_alpha   57.38730721
_cell_angle_beta   57.38731590
_cell_angle_gamma   60.60619907
_symmetry_Int_Tables_number   1
_chemical_formula_structural   CrO2
_chemical_formula_sum   'Cr4 O8'
_cell_volume   138.92032905
_cell_formula_units_Z   4
loop_
 _symmetry_equiv_pos_site_id
 _symmetry_equiv_pos_as_xyz
  1  'x, y, z'
loop_
 _atom_site_type_symbol
 _atom_site_label
 _atom_site_symmetry_multiplicity
 _atom_site_fract_x
 _atom_site_fract_y
 _atom_site_fract_z
 _atom_site_occupancy
  Cr  Cr0  1  0.009749  0.009749  0.990251  1
  Cr  Cr1  1  0.240251  0.240251  0.259749  1
  Cr  Cr2  1  0.625000  0.625000  0.125000  1
  Cr  Cr3  1  0.625000  0.625000  0.625000  1
  O  O4  1  0.367525  0.367525  0.356565  1
  O  O5  1  0.394015  0.854432  0.375776  1
  O  O6  1  0.367525  0.367525  0.908387  1
  O  O7  1  0.854432  0.394015  0.375776  1
  O  O8  1  0.395568  0.855985  0.874224  1
  O  O9  1  0.855985  0.395568  0.874224  1
  O  O10  1  0.882475  0.882475  0.341613  1
  O  O11  1  0.882475  0.882475  0.893435  1
