# generated using pymatgen
data_CrO2
_symmetry_space_group_name_H-M   'P 1'
_cell_length_a   5.79378609
_cell_length_b   5.88761561
_cell_length_c   5.88761534
_cell_angle_alpha   59.99999572
_cell_angle_beta   59.46281517
_cell_angle_gamma   59.46282002
_symmetry_Int_Tables_number   1
_chemical_formula_structural   CrO2
_chemical_formula_sum   'Cr4 O8'
_cell_volume   140.84840235
_cell_formula_units_Z   4
loop_
 _symmetry_equiv_pos_site_id
 _symmetry_equiv_pos_as_xyz
  1  'x, y, z'
loop_
 _atom_site_type_symbol
 _atom_site_label
 _atom_site_symmetry_multiplicity
 _atom_site_fract_x
 _atom_site_fract_y
 _atom_site_fract_z
 _atom_site_occupancy
  Cr  Cr0  1  0.265042  0.244986  0.244986  1
  Cr  Cr1  1  0.632670  0.105388  0.630971  1
  Cr  Cr2  1  0.632670  0.630971  0.105387  1
  Cr  Cr3  1  0.632670  0.630971  0.630971  1
  O  O4  1  0.403218  0.365869  0.365869  1
  O  O5  1  0.403218  0.365869  0.865043  1
  O  O6  1  0.403218  0.865043  0.365869  1
  O  O7  1  0.863688  0.378770  0.378770  1
  O  O8  1  0.405010  0.864996  0.864996  1
  O  O9  1  0.830316  0.418559  0.875562  1
  O  O10  1  0.830316  0.875562  0.418559  1
  O  O11  1  0.830316  0.875562  0.875562  1
