# generated using pymatgen
data_BiO2
_symmetry_space_group_name_H-M   'P 1'
_cell_length_a   6.16627831
_cell_length_b   7.05486711
_cell_length_c   26.77227802
_cell_angle_alpha   58.23776946
_cell_angle_beta   61.16755137
_cell_angle_gamma   55.17972707
_symmetry_Int_Tables_number   1
_chemical_formula_structural   BiO2
_chemical_formula_sum   'Bi16 O32'
_cell_volume   784.91242408
_cell_formula_units_Z   16
loop_
 _symmetry_equiv_pos_site_id
 _symmetry_equiv_pos_as_xyz
  1  'x, y, z'
loop_
 _atom_site_type_symbol
 _atom_site_label
 _atom_site_symmetry_multiplicity
 _atom_site_fract_x
 _atom_site_fract_y
 _atom_site_fract_z
 _atom_site_occupancy
  Bi  Bi0  1  0.465234  0.514177  0.124584  1
  Bi  Bi1  1  0.591307  0.427856  0.263232  1
  Bi  Bi2  1  0.465790  0.021615  0.124441  1
  Bi  Bi3  1  0.127000  0.181679  0.502908  1
  Bi  Bi4  1  0.778602  0.343220  0.383675  1
  Bi  Bi5  1  0.799651  0.863109  0.243876  1
  Bi  Bi6  1  0.865501  0.327014  0.746249  1
  Bi  Bi7  1  0.782358  0.845044  0.382557  1
  Bi  Bi8  1  0.488391  0.506727  0.625623  1
  Bi  Bi9  1  0.141635  0.669756  0.504769  1
  Bi  Bi10  1  0.492949  0.004615  0.624767  1
  Bi  Bi11  1  0.246804  0.132277  0.872818  1
  Bi  Bi12  1  0.251784  0.626826  0.872980  1
  Bi  Bi13  1  0.852634  0.829862  0.745805  1
  Bi  Bi14  1  0.423701  0.553051  0.992028  1
  Bi  Bi15  1  0.536900  0.018792  0.980731  1
  O  O16  1  0.280154  0.260346  0.047402  1
  O  O17  1  0.244262  0.289507  0.168915  1
  O  O18  1  0.279705  0.769123  0.047339  1
  O  O19  1  0.669913  0.289953  0.062464  1
  O  O20  1  0.255124  0.760715  0.180572  1
  O  O21  1  0.555519  0.059504  0.315660  1
  O  O22  1  0.716438  0.258271  0.185503  1
  O  O23  1  0.535624  0.118264  0.428641  1
  O  O24  1  0.559386  0.622710  0.314538  1
  O  O25  1  0.672879  0.758373  0.077473  1
  O  O26  1  0.929653  0.138299  0.321912  1
  O  O27  1  0.717212  0.782642  0.185490  1
  O  O28  1  0.280786  0.272140  0.546771  1
  O  O29  1  0.562425  0.604196  0.436025  1
  O  O30  1  0.008853  0.065814  0.452117  1
  O  O31  1  0.244078  0.291473  0.672960  1
  O  O32  1  0.259935  0.754427  0.554838  1
  O  O33  1  0.021172  0.583863  0.331514  1
  O  O34  1  0.728152  0.237266  0.581709  1
  O  O35  1  0.027562  0.610920  0.447388  1
  O  O36  1  0.232918  0.783312  0.670393  1
  O  O37  1  0.003306  0.424406  0.788282  1
  O  O38  1  0.720146  0.252724  0.697308  1
  O  O39  1  0.177143  0.283979  0.939201  1
  O  O40  1  0.011859  0.924234  0.784276  1
  O  O41  1  0.736557  0.716461  0.576009  1
  O  O42  1  0.511179  0.347740  0.822336  1
  O  O43  1  0.717263  0.733500  0.700462  1
  O  O44  1  0.092879  0.804883  0.947703  1
  O  O45  1  0.594591  0.392414  0.924215  1
  O  O46  1  0.477173  0.885117  0.814335  1
  O  O47  1  0.593550  0.814744  0.924828  1
