# generated using pymatgen
data_Mg2W3O8
_symmetry_space_group_name_H-M   'P 1'
_cell_length_a   4.91171900
_cell_length_b   5.82545568
_cell_length_c   6.28685275
_cell_angle_alpha   117.60055542
_cell_angle_beta   106.08832686
_cell_angle_gamma   89.99999719
_symmetry_Int_Tables_number   1
_chemical_formula_structural   Mg2W3O8
_chemical_formula_sum   'Mg2 W3 O8'
_cell_volume   151.41997315
_cell_formula_units_Z   1
loop_
 _symmetry_equiv_pos_site_id
 _symmetry_equiv_pos_as_xyz
  1  'x, y, z'
loop_
 _atom_site_type_symbol
 _atom_site_label
 _atom_site_symmetry_multiplicity
 _atom_site_fract_x
 _atom_site_fract_y
 _atom_site_fract_z
 _atom_site_occupancy
  Mg  Mg0  1  0.664998  0.717789  0.435576  1
  Mg  Mg1  1  0.335001  0.282212  0.564424  1
  W  W2  1  0.500000  0.999999  0.000000  1
  W  W3  1  0.999999  0.769406  1.000000  1
  W  W4  1  0.999999  0.230594  0.000000  1
  O  O5  1  0.098989  0.404997  0.809995  1
  O  O6  1  0.901011  0.595002  0.190005  1
  O  O7  1  0.061076  0.863108  0.726216  1
  O  O8  1  0.938924  0.136891  0.273783  1
  O  O9  1  0.407866  0.360724  0.242505  1
  O  O10  1  0.407866  0.881781  0.242505  1
  O  O11  1  0.592135  0.118218  0.757495  1
  O  O12  1  0.592135  0.639276  0.757495  1
