# generated using pymatgen
data_MgMo3O7
_symmetry_space_group_name_H-M   'P 1'
_cell_length_a   5.76511216
_cell_length_b   11.03042075
_cell_length_c   9.95270922
_cell_angle_alpha   90.00000000
_cell_angle_beta   90.00000000
_cell_angle_gamma   90.00000000
_symmetry_Int_Tables_number   1
_chemical_formula_structural   MgMo3O7
_chemical_formula_sum   'Mg4 Mo12 O28'
_cell_volume   632.90883099
_cell_formula_units_Z   4
loop_
 _symmetry_equiv_pos_site_id
 _symmetry_equiv_pos_as_xyz
  1  'x, y, z'
loop_
 _atom_site_type_symbol
 _atom_site_label
 _atom_site_symmetry_multiplicity
 _atom_site_fract_x
 _atom_site_fract_y
 _atom_site_fract_z
 _atom_site_occupancy
  Mg  Mg0  1  0.622065  0.750000  0.933461  1
  Mg  Mg1  1  0.122065  0.250000  0.566539  1
  Mg  Mg2  1  0.377935  0.250000  0.066539  1
  Mg  Mg3  1  0.877935  0.750000  0.433461  1
  Mo  Mo4  1  0.302841  0.019805  0.327157  1
  Mo  Mo5  1  0.802841  0.980195  0.172843  1
  Mo  Mo6  1  0.697159  0.519805  0.672843  1
  Mo  Mo7  1  0.197159  0.480195  0.827157  1
  Mo  Mo8  1  0.290571  0.750000  0.204302  1
  Mo  Mo9  1  0.790570  0.250000  0.295698  1
  Mo  Mo10  1  0.709430  0.250000  0.795698  1
  Mo  Mo11  1  0.209429  0.750000  0.704302  1
  Mo  Mo12  1  0.802841  0.519805  0.172843  1
  Mo  Mo13  1  0.302841  0.480195  0.327157  1
  Mo  Mo14  1  0.197159  0.019805  0.827157  1
  Mo  Mo15  1  0.697159  0.980195  0.672843  1
  O  O16  1  0.945556  0.117433  0.722414  1
  O  O17  1  0.445556  0.882567  0.777586  1
  O  O18  1  0.054444  0.617433  0.277586  1
  O  O19  1  0.554444  0.382567  0.222414  1
  O  O20  1  0.054444  0.882567  0.277586  1
  O  O21  1  0.554444  0.117433  0.222414  1
  O  O22  1  0.945556  0.382567  0.722414  1
  O  O23  1  0.445556  0.617433  0.777586  1
  O  O24  1  0.479723  0.116727  0.745768  1
  O  O25  1  0.979723  0.883273  0.754232  1
  O  O26  1  0.520277  0.616727  0.254232  1
  O  O27  1  0.020277  0.383273  0.245768  1
  O  O28  1  0.520277  0.883273  0.254232  1
  O  O29  1  0.020277  0.116727  0.245768  1
  O  O30  1  0.479723  0.383273  0.745768  1
  O  O31  1  0.979723  0.616727  0.754232  1
  O  O32  1  0.196002  0.750000  0.519596  1
  O  O33  1  0.696002  0.250000  0.980404  1
  O  O34  1  0.803998  0.250000  0.480404  1
  O  O35  1  0.303998  0.750000  0.019596  1
  O  O36  1  0.229906  0.398849  0.986513  1
  O  O37  1  0.729906  0.601151  0.513487  1
  O  O38  1  0.770094  0.898849  0.013487  1
  O  O39  1  0.270094  0.101151  0.486513  1
  O  O40  1  0.770094  0.601151  0.013487  1
  O  O41  1  0.270094  0.398849  0.486513  1
  O  O42  1  0.229906  0.101151  0.986513  1
  O  O43  1  0.729906  0.898849  0.513487  1
