# generated using pymatgen
data_Co9O13
_symmetry_space_group_name_H-M   'P 1'
_cell_length_a   3.00282477
_cell_length_b   5.13640463
_cell_length_c   16.93393128
_cell_angle_alpha   98.14962969
_cell_angle_beta   89.87238748
_cell_angle_gamma   106.96301422
_symmetry_Int_Tables_number   1
_chemical_formula_structural   Co9O13
_chemical_formula_sum   'Co9 O13'
_cell_volume   247.08682426
_cell_formula_units_Z   1
loop_
 _symmetry_equiv_pos_site_id
 _symmetry_equiv_pos_as_xyz
  1  'x, y, z'
loop_
 _atom_site_type_symbol
 _atom_site_label
 _atom_site_symmetry_multiplicity
 _atom_site_fract_x
 _atom_site_fract_y
 _atom_site_fract_z
 _atom_site_occupancy
  Co  Co0  1  0.500000  0.000000  0.500000  1
  Co  Co1  1  0.649538  0.296805  0.042954  1
  Co  Co2  1  0.350462  0.703194  0.957046  1
  Co  Co3  1  0.742636  0.498404  0.416911  1
  Co  Co4  1  0.257364  0.501596  0.583089  1
  Co  Co5  1  0.936663  0.875913  0.126842  1
  Co  Co6  1  0.063337  0.124087  0.873158  1
  Co  Co7  1  0.987763  0.974785  0.325294  1
  Co  Co8  1  0.012237  0.025215  0.674706  1
  O  O9  1  0.000000  0.000000  0.000000  1
  O  O10  1  0.889692  0.782822  0.226405  1
  O  O11  1  0.110308  0.217178  0.773595  1
  O  O12  1  0.295990  0.591606  0.064302  1
  O  O13  1  0.704010  0.408394  0.935697  1
  O  O14  1  0.566800  0.141126  0.131735  1
  O  O15  1  0.433200  0.858874  0.868265  1
  O  O16  1  0.618559  0.239873  0.330367  1
  O  O17  1  0.381441  0.760127  0.669633  1
  O  O18  1  0.391203  0.780589  0.395548  1
  O  O19  1  0.608797  0.219411  0.604452  1
  O  O20  1  0.135826  0.266919  0.473946  1
  O  O21  1  0.864174  0.733081  0.526054  1
