# generated using pymatgen
data_MgMoF5
_symmetry_space_group_name_H-M   'P 1'
_cell_length_a   5.52094486
_cell_length_b   5.52094442
_cell_length_c   7.76624846
_cell_angle_alpha   98.03182727
_cell_angle_beta   111.19579376
_cell_angle_gamma   107.14891718
_symmetry_Int_Tables_number   1
_chemical_formula_structural   MgMoF5
_chemical_formula_sum   'Mg2 Mo2 F10'
_cell_volume   202.67351426
_cell_formula_units_Z   2
loop_
 _symmetry_equiv_pos_site_id
 _symmetry_equiv_pos_as_xyz
  1  'x, y, z'
loop_
 _atom_site_type_symbol
 _atom_site_label
 _atom_site_symmetry_multiplicity
 _atom_site_fract_x
 _atom_site_fract_y
 _atom_site_fract_z
 _atom_site_occupancy
  Mg  Mg0  1  0.266301  0.516301  0.750000  1
  Mg  Mg1  1  0.733699  0.483699  0.250000  1
  Mo  Mo2  1  0.000000  0.000000  0.000000  1
  Mo  Mo3  1  0.500000  0.000000  0.500000  1
  F  F4  1  0.389152  0.139152  0.250000  1
  F  F5  1  0.610848  0.860848  0.750000  1
  F  F6  1  0.593525  0.710522  0.365251  1
  F  F7  1  0.845270  0.228274  0.134749  1
  F  F8  1  0.750444  0.678700  0.052570  1
  F  F9  1  0.126131  0.697875  0.447430  1
  F  F10  1  0.249556  0.321300  0.947430  1
  F  F11  1  0.873869  0.302125  0.552570  1
  F  F12  1  0.154730  0.771726  0.865251  1
  F  F13  1  0.406475  0.289478  0.634749  1
