# generated using pymatgen
data_Mg3V2(BiO6)2
_symmetry_space_group_name_H-M   'P 1'
_cell_length_a   5.52717407
_cell_length_b   7.58080956
_cell_length_c   7.41581869
_cell_angle_alpha   114.96754776
_cell_angle_beta   90.00000000
_cell_angle_gamma   90.00000000
_symmetry_Int_Tables_number   1
_chemical_formula_structural   Mg3V2(BiO6)2
_chemical_formula_sum   'Mg3 V2 Bi2 O12'
_cell_volume   281.68788122
_cell_formula_units_Z   1
loop_
 _symmetry_equiv_pos_site_id
 _symmetry_equiv_pos_as_xyz
  1  'x, y, z'
loop_
 _atom_site_type_symbol
 _atom_site_label
 _atom_site_symmetry_multiplicity
 _atom_site_fract_x
 _atom_site_fract_y
 _atom_site_fract_z
 _atom_site_occupancy
  Mg  Mg0  1  0.750000  0.100191  0.272601  1
  Mg  Mg1  1  0.249999  0.900205  0.726318  1
  Mg  Mg2  1  0.249999  0.285498  0.106918  1
  V  V3  1  0.750000  0.193759  0.800052  1
  V  V4  1  0.249999  0.802849  0.201234  1
  Bi  Bi5  1  0.249999  0.409881  0.595429  1
  Bi  Bi6  1  0.750000  0.585925  0.408553  1
  O  O7  1  0.750000  0.102163  0.544329  1
  O  O8  1  0.249999  0.896080  0.455324  1
  O  O9  1  0.249999  0.547678  0.098052  1
  O  O10  1  0.750000  0.436935  0.898393  1
  O  O11  1  0.002723  0.897429  0.125912  1
  O  O12  1  0.485485  0.117800  0.886770  1
  O  O13  1  0.014515  0.117800  0.886770  1
  O  O14  1  0.497277  0.897429  0.125912  1
  O  O15  1  0.500696  0.327463  0.330774  1
  O  O16  1  0.016996  0.667468  0.654372  1
  O  O17  1  0.999304  0.327463  0.330774  1
  O  O18  1  0.483004  0.667468  0.654372  1
