# generated using pymatgen
data_V2CoO7
_symmetry_space_group_name_H-M   'P 1'
_cell_length_a   6.55959683
_cell_length_b   11.09412285
_cell_length_c   15.00652259
_cell_angle_alpha   90.00000000
_cell_angle_beta   90.00000000
_cell_angle_gamma   102.26077784
_symmetry_Int_Tables_number   1
_chemical_formula_structural   V2CoO7
_chemical_formula_sum   'V16 Co8 O56'
_cell_volume   1067.16044997
_cell_formula_units_Z   8
loop_
 _symmetry_equiv_pos_site_id
 _symmetry_equiv_pos_as_xyz
  1  'x, y, z'
loop_
 _atom_site_type_symbol
 _atom_site_label
 _atom_site_symmetry_multiplicity
 _atom_site_fract_x
 _atom_site_fract_y
 _atom_site_fract_z
 _atom_site_occupancy
  V  V0  1  0.853003  0.982797  0.857621  1
  V  V1  1  0.426352  0.680016  0.003853  1
  V  V2  1  0.426352  0.180016  0.496147  1
  V  V3  1  0.573648  0.319984  0.996147  1
  V  V4  1  0.507077  0.801495  0.701218  1
  V  V5  1  0.492923  0.698505  0.201218  1
  V  V6  1  0.492923  0.198505  0.298782  1
  V  V7  1  0.507077  0.301495  0.798782  1
  V  V8  1  0.573648  0.819984  0.503853  1
  V  V9  1  0.874832  0.481518  0.138677  1
  V  V10  1  0.125168  0.018482  0.638677  1
  V  V11  1  0.125168  0.518482  0.861323  1
  V  V12  1  0.146997  0.517203  0.357621  1
  V  V13  1  0.853003  0.482797  0.642379  1
  V  V14  1  0.146997  0.017203  0.142379  1
  V  V15  1  0.874832  0.981518  0.361323  1
  Co  Co16  1  0.636973  0.075826  0.677332  1
  Co  Co17  1  0.363027  0.424174  0.177332  1
  Co  Co18  1  0.363027  0.924174  0.322668  1
  Co  Co19  1  0.636973  0.575826  0.822668  1
  Co  Co20  1  0.989112  0.249883  0.753666  1
  Co  Co21  1  0.010888  0.250117  0.253666  1
  Co  Co22  1  0.010888  0.750117  0.246334  1
  Co  Co23  1  0.989112  0.749883  0.746334  1
  O  O24  1  0.768266  0.963346  0.959318  1
  O  O25  1  0.231734  0.536654  0.459318  1
  O  O26  1  0.231734  0.036654  0.040682  1
  O  O27  1  0.768266  0.463346  0.540682  1
  O  O28  1  0.993461  0.867183  0.830356  1
  O  O29  1  0.006539  0.632817  0.330356  1
  O  O30  1  0.006539  0.132817  0.169644  1
  O  O31  1  0.993461  0.367183  0.669644  1
  O  O32  1  0.992172  0.136134  0.841060  1
  O  O33  1  0.007828  0.363866  0.341060  1
  O  O34  1  0.007828  0.863866  0.158940  1
  O  O35  1  0.992172  0.636134  0.658940  1
  O  O36  1  0.652260  0.948573  0.298847  1
  O  O37  1  0.347740  0.551427  0.798847  1
  O  O38  1  0.347740  0.051427  0.701153  1
  O  O39  1  0.652260  0.448573  0.201153  1
  O  O40  1  0.999712  0.132867  0.345448  1
  O  O41  1  0.000288  0.367133  0.845448  1
  O  O42  1  0.000288  0.867133  0.654552  1
  O  O43  1  0.999712  0.632867  0.154553  1
  O  O44  1  0.061038  0.884073  0.332118  1
  O  O45  1  0.385763  0.837805  0.423434  1
  O  O46  1  0.938962  0.615927  0.832118  1
  O  O47  1  0.061038  0.384073  0.167882  1
  O  O48  1  0.699345  0.720035  0.467668  1
  O  O49  1  0.300655  0.779965  0.967668  1
  O  O50  1  0.300655  0.279965  0.532332  1
  O  O51  1  0.699345  0.220035  0.032332  1
  O  O52  1  0.783689  0.962041  0.470017  1
  O  O53  1  0.216311  0.537959  0.970017  1
  O  O54  1  0.216311  0.037959  0.529983  1
  O  O55  1  0.783689  0.462041  0.029983  1
  O  O56  1  0.439348  0.221189  0.898299  1
  O  O57  1  0.560652  0.278811  0.398299  1
  O  O58  1  0.560652  0.778811  0.101701  1
  O  O59  1  0.439348  0.721189  0.601701  1
  O  O60  1  0.692485  0.213725  0.751479  1
  O  O61  1  0.307515  0.286275  0.251479  1
  O  O62  1  0.307515  0.786275  0.248521  1
  O  O63  1  0.692485  0.713725  0.748521  1
  O  O64  1  0.644433  0.459347  0.727498  1
  O  O65  1  0.355567  0.040653  0.227498  1
  O  O66  1  0.355567  0.540653  0.272502  1
  O  O67  1  0.644433  0.959347  0.772502  1
  O  O68  1  0.278834  0.279064  0.743457  1
  O  O69  1  0.721166  0.220936  0.243457  1
  O  O70  1  0.721166  0.720935  0.256543  1
  O  O71  1  0.278834  0.779065  0.756543  1
  O  O72  1  0.583204  0.427508  0.882794  1
  O  O73  1  0.416796  0.072492  0.382794  1
  O  O74  1  0.416796  0.572492  0.117206  1
  O  O75  1  0.583204  0.927508  0.617206  1
  O  O76  1  0.385763  0.337805  0.076566  1
  O  O77  1  0.614237  0.162195  0.576566  1
  O  O78  1  0.614237  0.662195  0.923434  1
  O  O79  1  0.938962  0.115927  0.667882  1
