# generated using pymatgen
data_MgCoP2O7
_symmetry_space_group_name_H-M   'P 1'
_cell_length_a   6.43986011
_cell_length_b   6.35863789
_cell_length_c   6.72345914
_cell_angle_alpha   66.43639833
_cell_angle_beta   81.59239431
_cell_angle_gamma   80.71297264
_symmetry_Int_Tables_number   1
_chemical_formula_structural   MgCoP2O7
_chemical_formula_sum   'Mg2 Co2 P4 O14'
_cell_volume   248.03466269
_cell_formula_units_Z   2
loop_
 _symmetry_equiv_pos_site_id
 _symmetry_equiv_pos_as_xyz
  1  'x, y, z'
loop_
 _atom_site_type_symbol
 _atom_site_label
 _atom_site_symmetry_multiplicity
 _atom_site_fract_x
 _atom_site_fract_y
 _atom_site_fract_z
 _atom_site_occupancy
  Mg  Mg0  1  0.866673  0.290111  0.153917  1
  Mg  Mg1  1  0.133327  0.709889  0.846083  1
  Co  Co2  1  0.664614  0.100762  0.780460  1
  Co  Co3  1  0.335386  0.899238  0.219540  1
  P  P4  1  0.157784  0.225105  0.755996  1
  P  P5  1  0.842216  0.774895  0.244004  1
  P  P6  1  0.616744  0.640294  0.688745  1
  P  P7  1  0.383256  0.359706  0.311255  1
  O  O8  1  0.761440  0.606830  0.480321  1
  O  O9  1  0.238560  0.393170  0.519679  1
  O  O10  1  0.001248  0.070564  0.744337  1
  O  O11  1  0.998752  0.929436  0.255663  1
  O  O12  1  0.608607  0.265653  0.380948  1
  O  O13  1  0.391393  0.734347  0.619052  1
  O  O14  1  0.364842  0.609464  0.141798  1
  O  O15  1  0.635158  0.390536  0.858201  1
  O  O16  1  0.938735  0.607803  0.134422  1
  O  O17  1  0.061265  0.392197  0.865578  1
  O  O18  1  0.652277  0.936831  0.135354  1
  O  O19  1  0.347723  0.063169  0.864646  1
  O  O20  1  0.269972  0.201566  0.254608  1
  O  O21  1  0.730028  0.798434  0.745392  1
