# generated using pymatgen
data_Mg3Cr2(GeO4)3
_symmetry_space_group_name_H-M   'P 1'
_cell_length_a   10.44261881
_cell_length_b   10.44261830
_cell_length_c   10.44261842
_cell_angle_alpha   109.47122089
_cell_angle_beta   109.47121989
_cell_angle_gamma   109.47121995
_symmetry_Int_Tables_number   1
_chemical_formula_structural   Mg3Cr2(GeO4)3
_chemical_formula_sum   'Mg12 Cr8 Ge12 O48'
_cell_volume   876.60986450
_cell_formula_units_Z   4
loop_
 _symmetry_equiv_pos_site_id
 _symmetry_equiv_pos_as_xyz
  1  'x, y, z'
loop_
 _atom_site_type_symbol
 _atom_site_label
 _atom_site_symmetry_multiplicity
 _atom_site_fract_x
 _atom_site_fract_y
 _atom_site_fract_z
 _atom_site_occupancy
  Mg  Mg0  1  0.625000  0.250000  0.875000  1
  Mg  Mg1  1  0.875000  0.750000  0.625000  1
  Mg  Mg2  1  0.750000  0.625000  0.875000  1
  Mg  Mg3  1  0.250000  0.875000  0.625000  1
  Mg  Mg4  1  0.875000  0.625000  0.250000  1
  Mg  Mg5  1  0.625000  0.875000  0.750000  1
  Mg  Mg6  1  0.375000  0.750000  0.125000  1
  Mg  Mg7  1  0.125000  0.250000  0.375000  1
  Mg  Mg8  1  0.250000  0.375000  0.125000  1
  Mg  Mg9  1  0.750000  0.125000  0.375000  1
  Mg  Mg10  1  0.125000  0.375000  0.750000  1
  Mg  Mg11  1  0.375000  0.125000  0.250000  1
  Cr  Cr12  1  0.500000  0.500000  0.500000  1
  Cr  Cr13  1  0.500000  0.500000  0.000000  1
  Cr  Cr14  1  0.500000  0.000000  0.500000  1
  Cr  Cr15  1  0.000000  0.500000  0.500000  1
  Cr  Cr16  1  0.500000  0.000000  0.000000  1
  Cr  Cr17  1  0.000000  0.000000  0.500000  1
  Cr  Cr18  1  0.000000  0.500000  0.000000  1
  Cr  Cr19  1  0.000000  0.000000  0.000000  1
  Ge  Ge20  1  0.875000  0.125000  0.750000  1
  Ge  Ge21  1  0.125000  0.875000  0.250000  1
  Ge  Ge22  1  0.250000  0.625000  0.375000  1
  Ge  Ge23  1  0.125000  0.750000  0.875000  1
  Ge  Ge24  1  0.750000  0.875000  0.125000  1
  Ge  Ge25  1  0.375000  0.250000  0.625000  1
  Ge  Ge26  1  0.625000  0.750000  0.375000  1
  Ge  Ge27  1  0.875000  0.250000  0.125000  1
  Ge  Ge28  1  0.250000  0.125000  0.875000  1
  Ge  Ge29  1  0.750000  0.375000  0.625000  1
  Ge  Ge30  1  0.375000  0.625000  0.750000  1
  Ge  Ge31  1  0.625000  0.375000  0.250000  1
  O  O32  1  0.790716  0.418188  0.818245  1
  O  O33  1  0.081812  0.872527  0.400056  1
  O  O34  1  0.681755  0.099944  0.972470  1
  O  O35  1  0.709284  0.527530  0.627473  1
  O  O36  1  0.709284  0.681755  0.081812  1
  O  O37  1  0.527530  0.627473  0.709284  1
  O  O38  1  0.099944  0.627473  0.418188  1
  O  O39  1  0.627473  0.709284  0.527530  1
  O  O40  1  0.400056  0.818245  0.527530  1
  O  O41  1  0.872527  0.972470  0.790716  1
  O  O42  1  0.972470  0.790716  0.872527  1
  O  O43  1  0.081812  0.709284  0.681755  1
  O  O44  1  0.627473  0.418188  0.099944  1
  O  O45  1  0.527530  0.400056  0.818245  1
  O  O46  1  0.681755  0.081812  0.709284  1
  O  O47  1  0.418188  0.099944  0.627473  1
  O  O48  1  0.818245  0.527530  0.400056  1
  O  O49  1  0.400056  0.081812  0.872527  1
  O  O50  1  0.099944  0.972470  0.681755  1
  O  O51  1  0.599944  0.181755  0.472470  1
  O  O52  1  0.972470  0.681755  0.099944  1
  O  O53  1  0.818245  0.790716  0.418188  1
  O  O54  1  0.872527  0.400056  0.081812  1
  O  O55  1  0.790716  0.872527  0.972470  1
  O  O56  1  0.209284  0.581812  0.181755  1
  O  O57  1  0.918188  0.127473  0.599944  1
  O  O58  1  0.318245  0.900056  0.027530  1
  O  O59  1  0.290716  0.472470  0.372527  1
  O  O60  1  0.290716  0.318245  0.918188  1
  O  O61  1  0.472470  0.372527  0.290716  1
  O  O62  1  0.900056  0.372527  0.581812  1
  O  O63  1  0.372527  0.290716  0.472470  1
  O  O64  1  0.209284  0.127473  0.027530  1
  O  O65  1  0.127473  0.599944  0.918188  1
  O  O66  1  0.181755  0.209284  0.581812  1
  O  O67  1  0.581812  0.181755  0.209284  1
  O  O68  1  0.027530  0.318245  0.900056  1
  O  O69  1  0.900056  0.027530  0.318245  1
  O  O70  1  0.599944  0.918188  0.127473  1
  O  O71  1  0.181755  0.472470  0.599944  1
  O  O72  1  0.581812  0.900056  0.372527  1
  O  O73  1  0.318245  0.918188  0.290716  1
  O  O74  1  0.472470  0.599944  0.181755  1
  O  O75  1  0.372527  0.581812  0.900056  1
  O  O76  1  0.918188  0.290716  0.318245  1
  O  O77  1  0.027530  0.209284  0.127473  1
  O  O78  1  0.127473  0.027530  0.209284  1
  O  O79  1  0.418188  0.818245  0.790716  1
