# generated using pymatgen
data_MgV2O6
_symmetry_space_group_name_H-M   'P 1'
_cell_length_a   5.64473791
_cell_length_b   5.19502245
_cell_length_c   5.48383504
_cell_angle_alpha   118.32084285
_cell_angle_beta   90.05196629
_cell_angle_gamma   89.79813830
_symmetry_Int_Tables_number   1
_chemical_formula_structural   MgV2O6
_chemical_formula_sum   'Mg1 V2 O6'
_cell_volume   141.56171652
_cell_formula_units_Z   1
loop_
 _symmetry_equiv_pos_site_id
 _symmetry_equiv_pos_as_xyz
  1  'x, y, z'
loop_
 _atom_site_type_symbol
 _atom_site_label
 _atom_site_symmetry_multiplicity
 _atom_site_fract_x
 _atom_site_fract_y
 _atom_site_fract_z
 _atom_site_occupancy
  Mg  Mg0  1  0.499908  0.809919  0.619829  1
  V  V1  1  0.000174  0.686405  0.373272  1
  V  V2  1  -0.000024  0.315657  0.630971  1
  O  O3  1  0.785476  0.513355  0.502286  1
  O  O4  1  0.214635  0.988778  0.502184  1
  O  O5  1  -0.000001  0.499367  0.998883  1
  O  O6  1  0.785603  0.989785  0.501578  1
  O  O7  1  0.214421  0.511735  0.501463  1
  O  O8  1  0.499811  0.011066  0.021690  1
